version 2
run Wireless01-0-20210504-22:32:46-6764
attr configname Wireless01
attr datetime 20210504-22:32:46
attr experiment Wireless01
attr inifile omnetpp.ini
attr iterationvars ""
attr iterationvarsf ""
attr measurement ""
attr network simple_wireless
attr processid 6764
attr repetition 0
attr replication #0
attr resultdir results
attr runnumber 0
attr seedset 0
param *.host*.ipv4.arp.typename "\"GlobalArp\""
param *.hostT.numApps 1
param *.hostT.app[0].typename "\"UdpBasicApp\""
param *.hostT.app[0].destAddresses "\"hostR\""
param *.hostT.app[0].destPort 5000
param *.hostT.app[0].messageLength 1000B
param *.hostT.app[0].sendInterval exponential(12ms)
param *.hostT.app[0].packetName "\"UDPData\""
param *.hostR.numApps 1
param *.hostR.app[0].typename "\"UdpSink\""
param *.hostR.app[0].localPort 5000
param *.host*.wlan[0].typename "\"WirelessInterface\""
param *.host*.wlan[0].radio.typename "\"UnitDiskRadioCustomized\""
param *.host*.wlan[0].mac.typename "\"AckingMac\""
param *.host*.wlan[0].mac.useAck false
param *.host*.wlan[0].mac.fullDuplex false
param *.host*.wlan[0].mac.headerLength 23B
param *.host*.**.bitrate 1Mbps
param *.host*.wlan[0].radio.transmitter.communicationRange 320m
param *.hostT.wlan[0].radio.displayCommunicationRange true
param *.hostR.mobility.typename "\"LinearMobility\""
param *.hostR.mobility.speed 15mps
param *.hostR.mobility.initialMovementHeading 270deg
param *.hostT.mobility.typename "\"LinearMobility\""
param *.hostT.mobility.speed 1mps
param *.hostT.mobility.initialMovementHeading 270deg
param *.host*.wlan[0].radio.receiver.LinearMobility "\"2\""
param *.host*.wlan[0].radio.receiver.ignoreInterference true
param *.host*.wlan[0].radio.transmitter.interferenceRange 500m
param *.hostT.wlan[0].radio.displayInterferenceRange true
param *.host*.wlan[0].radio.receiver.errorModel.packetErrorRate 0.6

vector 0 simple_wireless.hostT.wlan[0].radio radioMode:vector ETV
attr interpolationmode sample-hold
attr source radioModeChanged
attr title "Radio mode, vector"
vector 1 simple_wireless.hostR.wlan[0].radio radioMode:vector ETV
attr interpolationmode sample-hold
attr source radioModeChanged
attr title "Radio mode, vector"
vector 2 simple_wireless.hostT.wlan[0].radio receptionState:vector ETV
attr interpolationmode sample-hold
attr source receptionStateChanged
attr title "Radio reception state, vector"
vector 3 simple_wireless.hostR.wlan[0].radio receptionState:vector ETV
attr interpolationmode sample-hold
attr source receptionStateChanged
attr title "Radio reception state, vector"
vector 4 simple_wireless.hostT.app[0] packetSent:vector(packetBytes) ETV
attr interpolationmode none
attr source packetSent
attr title "packets sent, vector(packetBytes)"
vector 5 simple_wireless.hostT.udp packetSent:vector(packetBytes) ETV
attr interpolationmode none
attr source packetSent
attr title "packets sent, vector(packetBytes)"
vector 6 simple_wireless.hostT.wlan[0].mac rcvdPkFromHl:vector(packetBytes) ETV
attr interpolationmode none
attr source packetReceivedFromUpper
attr title "packets received from higher layer, vector(packetBytes)"
vector 7 simple_wireless.hostT.wlan[0].mac.queue packetPushed:vector(packetBytes) ETV
attr interpolationmode none
attr title "packet pushed, vector(packetBytes)"
vector 8 simple_wireless.hostT.wlan[0].mac.queue queueLength:vector ETV
attr interpolationmode sample-hold
attr source "count(packetPushed) - count(packetPopped) - count(packetRemoved) - count(packetDropped)"
attr title "queue length, vector"
vector 9 simple_wireless.hostT.wlan[0].mac.queue packetPopped:vector(packetBytes) ETV
attr interpolationmode none
attr title "packet popped, vector(packetBytes)"
vector 10 simple_wireless.hostT.wlan[0].mac.queue queueingTime:vector ETV
attr interpolationmode none
attr source queueingTime(packetPopped)
attr title "queueing times, vector"
attr unit s
vector 11 simple_wireless.hostT.wlan[0].radio transmissionState:vector ETV
attr interpolationmode sample-hold
attr source transmissionStateChanged
attr title "Radio transmission state, vector"
vector 12 simple_wireless.hostT.wlan[0].mac sentDownPk:vector(packetBytes) ETV
attr interpolationmode none
attr source packetSentToLower
attr title "packets sent to lower layer, vector(packetBytes)"
vector 13 simple_wireless.hostR.wlan[0].mac rcvdPkFromLl:vector(packetBytes) ETV
attr interpolationmode none
attr source packetReceivedFromLower
attr title "packets received from lower layer, vector(packetBytes)"
vector 14 simple_wireless.hostR.wlan[0].mac passedUpPk:vector(packetBytes) ETV
attr interpolationmode none
attr source packetSentToUpper
attr title "packets passed to higher layer, vector(packetBytes)"
vector 15 simple_wireless.hostR.udp packetReceived:vector(packetBytes) ETV
attr interpolationmode none
attr source packetReceived
attr title "packets received, vector(packetBytes)"
vector 16 simple_wireless.hostR.udp passedUpPk:vector(count) ETV
attr interpolationmode none
attr source packetSentToUpper
attr title "packets passed up, vector(count)"
vector 17 simple_wireless.hostR.app[0] packetReceived:vector(packetBytes) ETV
attr interpolationmode none
attr source packetReceived
attr title "packets received, vector(packetBytes)"
vector 18 simple_wireless.hostR.app[0] endToEndDelay:vector ETV
attr interpolationmode none
attr source dataAge(packetReceived)
attr title "end-to-end delay, vector"
attr unit s
vector 19 simple_wireless.hostR.app[0] rcvdPkSeqNo:vector ETV
attr interpolationmode none
attr source appPkSeqNo(packetReceived)
attr title "received packet sequence number, vector"
vector 20 simple_wireless.hostR.wlan[0].mac packetDropIncorrectlyReceived:vector(packetBytes) ETV
attr interpolationmode none
attr source packetDropReasonIsIncorrectlyReceived(packetDropped)
attr title "packet drop: incorrectly received, vector(packetBytes)"
vector 21 simple_wireless.hostR.app[0] throughput:vector ETV
attr source throughput(packetReceived)
attr title "throughput, vector"
attr unit bps
vector 22 simple_wireless.hostT.app[0] throughput:vector ETV
attr source throughput(packetReceived)
attr title "throughput, vector"
attr unit bps
0	0	0	0
0	0	0	0
0	0	0	2
0	8	0.022315250545	3
0	15	0.030819250545	2
0	15	0.030819250545	3
0	23	0.039323250545	2
0	33	0.041385743993	3
0	37	0.049889743993	2
0	47	0.068068037057	3
0	54	0.076572037057	2
0	54	0.076572037057	3
0	63	0.085076037057	2
0	63	0.085076037057	3
0	76	0.093580037057	2
0	76	0.093580037057	3
0	100	0.102084037057	2
0	100	0.102084037057	3
0	106	0.110588037057	2
0	106	0.110588037057	3
0	116	0.119092037057	2
0	116	0.119092037057	3
0	122	0.127596037057	2
0	122	0.127596037057	3
0	128	0.136100037057	2
0	128	0.136100037057	3
0	141	0.144604037057	2
0	141	0.144604037057	3
0	150	0.153108037057	2
0	160	0.162225131989	3
0	164	0.170729131989	2
0	173	0.17585639929	3
0	177	0.18436039929	2
0	186	0.188113581782	3
0	190	0.196617581782	2
0	196	0.197363597684	3
0	201	0.205867597684	2
0	210	0.206217525185	3
0	218	0.214721525185	2
0	218	0.214721525185	3
0	228	0.223225525185	2
0	228	0.223225525185	3
0	249	0.231729525185	2
0	249	0.231729525185	3
0	259	0.240233525185	2
0	259	0.240233525185	3
0	272	0.248737525185	2
0	272	0.248737525185	3
0	278	0.257241525185	2
0	278	0.257241525185	3
0	287	0.265745525185	2
0	287	0.265745525185	3
0	300	0.274249525185	2
0	300	0.274249525185	3
0	314	0.282753525185	2
0	314	0.282753525185	3
0	320	0.291257525185	2
0	320	0.291257525185	3
0	326	0.299761525185	2
0	336	0.321704738022	3
0	347	0.330208738022	2
0	347	0.330208738022	3
0	364	0.338712738022	2
0	364	0.338712738022	3
0	370	0.347216738022	2
0	370	0.347216738022	3
0	380	0.355720738022	2
0	380	0.355720738022	3
0	397	0.364224738022	2
0	397	0.364224738022	3
0	406	0.372728738022	2
0	406	0.372728738022	3
0	419	0.381232738022	2
0	419	0.381232738022	3
0	432	0.389736738022	2
0	432	0.389736738022	3
0	449	0.398240738022	2
0	449	0.398240738022	3
0	460	0.406744738022	2
0	460	0.406744738022	3
0	477	0.415248738022	2
0	477	0.415248738022	3
0	491	0.423752738022	2
0	491	0.423752738022	3
0	505	0.432256738022	2
0	505	0.432256738022	3
0	511	0.440760738022	2
0	511	0.440760738022	3
0	520	0.449264738022	2
0	520	0.449264738022	3
0	529	0.457768738022	2
0	529	0.457768738022	3
0	535	0.466272738022	2
0	535	0.466272738022	3
0	544	0.474776738022	2
0	544	0.474776738022	3
0	554	0.483280738022	2
0	554	0.483280738022	3
0	567	0.491784738022	2
0	567	0.491784738022	3
0	586	0.500288738022	2
0	586	0.500288738022	3
0	599	0.508792738022	2
0	599	0.508792738022	3
0	608	0.517296738022	2
0	608	0.517296738022	3
0	618	0.525800738022	2
0	618	0.525800738022	3
0	627	0.534304738022	2
0	638	0.548127327711	3
0	641	0.556631327711	2
0	650	0.558121449904	3
0	657	0.566625449904	2
0	657	0.566625449904	3
0	667	0.575129449904	2
0	667	0.575129449904	3
0	676	0.583633449904	2
0	689	0.601195189486	3
0	700	0.609699189486	2
0	700	0.609699189486	3
0	708	0.618203189486	2
0	708	0.618203189486	3
0	714	0.626707189486	2
0	720	0.627380015292	3
0	732	0.635884015292	2
0	732	0.635884015292	3
0	741	0.644388015292	2
0	741	0.644388015292	3
0	754	0.652892015292	2
0	754	0.652892015292	3
0	763	0.661396015292	2
0	773	0.665694511932	3
0	777	0.674198511932	2
0	786	0.679286121636	3
0	790	0.687790121636	2
0	796	0.693884225477	3
0	802	0.702388225477	2
0	812	0.73318594361	3
0	815	0.74168994361	2
0	824	0.750118236522	3
0	828	0.758622236522	2
0	834	0.760877326971	3
0	838	0.769381326971	2
0	847	0.773101231731	3
0	851	0.781605231731	2
0	860	0.809728611614	3
0	867	0.818232611614	2
0	867	0.818232611614	3
0	872	0.826736611614	2
0	883	0.863001243345	3
0	886	0.871505243345	2
0	892	0.880483066048	3
0	900	0.888987066048	2
0	900	0.888987066048	3
0	908	0.897491066048	2
0	921	0.912097283774	3
0	924	0.920601283774	2
0	931	0.937715249174	3
0	934	0.946219249174	2
0	940	0.948369586099	3
0	948	0.956873586099	2
0	948	0.956873586099	3
0	956	0.965377586099	2
0	964	0.994224799922	3
0	973	1.002728799922	2
0	973	1.002728799922	3
0	981	1.011232799922	2
0	990	1.012030386369	3
0	998	1.020534386369	2
0	998	1.020534386369	3
0	1007	1.029038386369	2
0	1016	1.029289355343	3
0	1020	1.037793355343	2
0	1027	1.040837856012	3
0	1031	1.049341856012	2
0	1041	1.066127227271	3
0	1048	1.074631227271	2
0	1048	1.074631227271	3
0	1060	1.083135227271	2
0	1060	1.083135227271	3
0	1073	1.091639227271	2
0	1073	1.091639227271	3
0	1081	1.100143227271	2
0	1088	1.102843314983	3
0	1096	1.111347314983	2
0	1096	1.111347314983	3
0	1104	1.119851314983	2
0	1115	1.136842248908	3
0	1122	1.145346248908	2
0	1122	1.145346248908	3
0	1130	1.153850248908	2
0	1138	1.170410763412	3
0	1141	1.178914763412	2
0	1150	1.185014997356	3
0	1162	1.193518997356	2
0	1162	1.193518997356	3
0	1177	1.202022997356	2
0	1177	1.202022997356	3
0	1186	1.210526997356	2
0	1186	1.210526997356	3
0	1195	1.219030997356	2
0	1195	1.219030997356	3
0	1212	1.227534997356	2
0	1212	1.227534997356	3
0	1218	1.236038997356	2
0	1218	1.236038997356	3
0	1224	1.244542997356	2
0	1230	1.245648970203	3
0	1234	1.254152970203	2
0	1244	1.255751541744	3
0	1252	1.264255541744	2
0	1252	1.264255541744	3
0	1257	1.272759541744	2
0	1270	1.304755145237	3
0	1281	1.313259145237	2
0	1281	1.313259145237	3
0	1290	1.321763145237	2
0	1290	1.321763145237	3
0	1299	1.330267145237	2
0	1299	1.330267145237	3
0	1308	1.338771145237	2
0	1315	1.340614250389	3
0	1319	1.349118250389	2
0	1326	1.375229591414	3
0	1333	1.383733591414	2
0	1333	1.383733591414	3
0	1349	1.392237591414	2
0	1349	1.392237591414	3
0	1364	1.400741591414	2
0	1364	1.400741591414	3
0	1373	1.409245591414	2
0	1373	1.409245591414	3
0	1390	1.417749591414	2
0	1390	1.417749591414	3
0	1396	1.426253591414	2
0	1396	1.426253591414	3
0	1402	1.434757591414	2
0	1413	1.449275869711	3
0	1416	1.457779869711	2
0	1425	1.467645844426	3
0	1429	1.476149844426	2
0	1438	1.479303630323	3
0	1442	1.487807630323	2
0	1451	1.493715281202	3
0	1457	1.502219281202	2
0	1467	1.526371460273	3
0	1470	1.534875460273	2
0	1479	1.540010618216	3
0	1483	1.548514618216	2
0	1489	1.550707161139	3
0	1493	1.559211161139	2
0	1503	1.590762373145	3
0	1510	1.599266373145	2
0	1510	1.599266373145	3
0	1528	1.607770373145	2
0	1528	1.607770373145	3
0	1538	1.616274373145	2
0	1538	1.616274373145	3
0	1548	1.624778373145	2
0	1548	1.624778373145	3
0	1557	1.633282373145	2
0	1557	1.633282373145	3
0	1574	1.641786373145	2
0	1574	1.641786373145	3
0	1587	1.650290373145	2
0	1587	1.650290373145	3
0	1597	1.658794373145	2
0	1597	1.658794373145	3
0	1606	1.667298373145	2
0	1606	1.667298373145	3
0	1619	1.675802373145	2
0	1619	1.675802373145	3
0	1628	1.684306373145	2
0	1635	1.692251822474	3
0	1645	1.700755822474	2
0	1645	1.700755822474	3
0	1653	1.709259822474	2
0	1660	1.713630857808	3
0	1664	1.722134857808	2
0	1670	1.728681297049	3
0	1678	1.737185297049	2
0	1678	1.737185297049	3
0	1687	1.745689297049	2
0	1687	1.745689297049	3
0	1700	1.754193297049	2
0	1700	1.754193297049	3
0	1706	1.762697297049	2
0	1715	1.763485796379	3
0	1723	1.771989796379	2
0	1723	1.771989796379	3
0	1736	1.780493796379	2
0	1736	1.780493796379	3
0	1746	1.788997796379	2
0	1746	1.788997796379	3
0	1755	1.797501796379	2
0	1768	1.81346974714	3
0	1771	1.82197374714	2
0	1778	1.832666380442	3
0	1781	1.841170380442	2
0	1787	1.84633507225	3
0	1791	1.85483907225	2
0	1800	1.860292431651	3
0	1804	1.868796431651	2
0	1811	1.878948386905	3
0	1814	1.887452386905	2
0	1820	1.894698482821	3
0	1830	1.903202482821	2
0	1830	1.903202482821	3
0	1838	1.911706482821	2
0	1849	1.937100781536	3
0	1852	1.945604781536	2
0	1861	1.952020990871	3
0	1869	1.960524990871	2
0	1869	1.960524990871	3
0	1882	1.969028990871	2
0	1882	1.969028990871	3
0	1895	1.977532990871	2
0	1895	1.977532990871	3
0	1901	1.986036990871	2
0	1901	1.986036990871	3
0	1914	1.994540990871	2
0	1914	1.994540990871	3
0	1929	2.003044990871	2
0	1929	2.003044990871	3
0	1943	2.011548990871	2
0	1943	2.011548990871	3
0	1949	2.020052990871	2
0	1949	2.020052990871	3
0	1966	2.028556990871	2
0	1966	2.028556990871	3
0	1979	2.037060990871	2
0	1979	2.037060990871	3
0	1985	2.045564990871	2
0	1985	2.045564990871	3
0	1998	2.054068990871	2
0	1998	2.054068990871	3
0	2008	2.062572990871	2
0	2008	2.062572990871	3
0	2017	2.071076990871	2
0	2028	2.09054360088	3
0	2031	2.09904760088	2
0	2039	2.100184302032	3
0	2054	2.108688302032	2
0	2054	2.108688302032	3
0	2063	2.117192302032	2
0	2063	2.117192302032	3
0	2076	2.125696302032	2
0	2076	2.125696302032	3
0	2086	2.134200302032	2
0	2086	2.134200302032	3
0	2092	2.142704302032	2
0	2092	2.142704302032	3
0	2106	2.151208302032	2
0	2106	2.151208302032	3
0	2119	2.159712302032	2
0	2119	2.159712302032	3
0	2132	2.168216302032	2
0	2132	2.168216302032	3
0	2138	2.176720302032	2
0	2138	2.176720302032	3
0	2144	2.185224302032	2
0	2154	2.212936641064	3
0	2161	2.221440641064	2
0	2161	2.221440641064	3
0	2173	2.229944641064	2
0	2173	2.229944641064	3
0	2182	2.238448641064	2
0	2190	2.2589673905	3
0	2193	2.2674713905	2
0	2203	2.278232895657	3
0	2206	2.286736895657	2
0	2212	2.293027461213	3
0	2222	2.301531461213	2
0	2222	2.301531461213	3
0	2230	2.310035461213	2
0	2237	2.319869721235	3
0	2253	2.328373721235	2
0	2253	2.328373721235	3
0	2258	2.336877721235	2
0	2258	2.336877721235	3
0	2267	2.345381721235	2
0	2267	2.345381721235	3
0	2273	2.353885721235	2
0	2284	2.375167458909	3
0	2287	2.383671458909	2
0	2296	2.387409703964	3
0	2304	2.395913703964	2
0	2304	2.395913703964	3
0	2319	2.404417703964	2
0	2319	2.404417703964	3
0	2332	2.412921703964	2
0	2332	2.412921703964	3
0	2341	2.421425703964	2
0	2341	2.421425703964	3
0	2350	2.429929703964	2
0	2358	2.458949945229	3
0	2361	2.467453945229	2
0	2373	2.502257237289	3
0	2376	2.510761237289	2
0	2383	2.520920769613	3
0	2386	2.529424769613	2
0	2395	2.538769926665	3
0	2403	2.547273926665	2
0	2403	2.547273926665	3
0	2427	2.555777926665	2
0	2427	2.555777926665	3
0	2436	2.564281926665	2
0	2436	2.564281926665	3
0	2449	2.572785926665	2
0	2449	2.572785926665	3
0	2458	2.581289926665	2
0	2458	2.581289926665	3
0	2475	2.589793926665	2
0	2475	2.589793926665	3
0	2485	2.598297926665	2
0	2485	2.598297926665	3
0	2496	2.606801926665	2
0	2496	2.606801926665	3
0	2509	2.615305926665	2
0	2509	2.615305926665	3
0	2518	2.623809926665	2
0	2518	2.623809926665	3
0	2528	2.632313926665	2
0	2528	2.632313926665	3
0	2550	2.640817926665	2
0	2550	2.640817926665	3
0	2563	2.649321926665	2
0	2563	2.649321926665	3
0	2576	2.657825926665	2
0	2576	2.657825926665	3
0	2589	2.666329926665	2
0	2589	2.666329926665	3
0	2598	2.674833926665	2
0	2598	2.674833926665	3
0	2607	2.683337926665	2
0	2607	2.683337926665	3
0	2624	2.691841926665	2
0	2624	2.691841926665	3
0	2635	2.700345926665	2
0	2635	2.700345926665	3
0	2648	2.708849926665	2
0	2648	2.708849926665	3
0	2657	2.717353926665	2
0	2657	2.717353926665	3
0	2667	2.725857926665	2
0	2667	2.725857926665	3
0	2673	2.734361926665	2
0	2683	2.740455079649	3
0	2691	2.748959079649	2
0	2691	2.748959079649	3
0	2703	2.757463079649	2
0	2703	2.757463079649	3
0	2712	2.765967079649	2
0	2723	2.783414492713	3
0	2726	2.791918492713	2
0	2737	2.801540031928	3
0	2745	2.810044031928	2
0	2745	2.810044031928	3
0	2753	2.818548031928	2
0	2763	2.821388702711	3
0	2767	2.829892702711	2
0	2773	2.830167246781	3
0	2780	2.838671246781	2
0	2780	2.838671246781	3
0	2790	2.847175246781	2
0	2790	2.847175246781	3
0	2799	2.855679246781	2
0	2808	2.857081822642	3
0	2816	2.865585822642	2
0	2816	2.865585822642	3
0	2829	2.874089822642	2
0	2829	2.874089822642	3
0	2847	2.882593822642	2
0	2847	2.882593822642	3
0	2868	2.891097822642	2
0	2868	2.891097822642	3
0	2877	2.899601822642	2
0	2877	2.899601822642	3
0	2892	2.908105822642	2
0	2892	2.908105822642	3
0	2898	2.916609822642	2
0	2898	2.916609822642	3
0	2907	2.925113822642	2
0	2907	2.925113822642	3
0	2920	2.933617822642	2
0	2920	2.933617822642	3
0	2926	2.942121822642	2
0	2926	2.942121822642	3
0	2939	2.950625822642	2
0	2939	2.950625822642	3
0	2948	2.959129822642	2
0	2956	2.972484421033	3
0	2959	2.980988421033	2
0	2968	2.986916986439	3
0	2972	2.995420986439	2
0	2980	3.002032680486	3
0	2984	3.010536680486	2
0	2990	3.014161910443	3
0	2994	3.022665910443	2
0	3003	3.031640632982	3
0	3007	3.040144632982	2
0	3017	3.050739306456	3
0	3024	3.059243306456	2
0	3024	3.059243306456	3
0	3036	3.067747306456	2
0	3036	3.067747306456	3
0	3045	3.076251306456	2
0	3055	3.085720454248	3
0	3059	3.094224454248	2
0	3068	3.122127765117	3
0	3071	3.130631765117	2
0	3078	3.145983038575	3
0	3081	3.154487038575	2
0	3088	3.174725196048	3
0	3099	3.183229196048	2
0	3099	3.183229196048	3
0	3115	3.191733196048	2
0	3115	3.191733196048	3
0	3130	3.200237196048	2
0	3130	3.200237196048	3
0	3136	3.208741196048	2
0	3136	3.208741196048	3
0	3150	3.217245196048	2
0	3150	3.217245196048	3
0	3171	3.225749196048	2
0	3171	3.225749196048	3
0	3181	3.234253196048	2
0	3181	3.234253196048	3
0	3195	3.242757196048	2
0	3195	3.242757196048	3
0	3204	3.251261196048	2
0	3204	3.251261196048	3
0	3210	3.259765196048	2
0	3210	3.259765196048	3
0	3219	3.268269196048	2
0	3219	3.268269196048	3
0	3236	3.276773196048	2
0	3236	3.276773196048	3
0	3249	3.285277196048	2
0	3249	3.285277196048	3
0	3258	3.293781196048	2
0	3258	3.293781196048	3
0	3273	3.302285196048	2
0	3273	3.302285196048	3
0	3290	3.310789196048	2
0	3290	3.310789196048	3
0	3303	3.319293196048	2
0	3303	3.319293196048	3
0	3324	3.327797196048	2
0	3324	3.327797196048	3
0	3338	3.336301196048	2
0	3338	3.336301196048	3
0	3352	3.344805196048	2
0	3352	3.344805196048	3
0	3362	3.353309196048	2
0	3362	3.353309196048	3
0	3371	3.361813196048	2
0	3371	3.361813196048	3
0	3381	3.370317196048	2
0	3381	3.370317196048	3
0	3394	3.378821196048	2
0	3394	3.378821196048	3
0	3400	3.387325196048	2
0	3400	3.387325196048	3
0	3417	3.395829196048	2
0	3417	3.395829196048	3
0	3428	3.404333196048	2
0	3428	3.404333196048	3
0	3441	3.412837196048	2
0	3441	3.412837196048	3
0	3451	3.421341196048	2
0	3451	3.421341196048	3
0	3460	3.429845196048	2
0	3460	3.429845196048	3
0	3469	3.438349196048	2
0	3469	3.438349196048	3
0	3486	3.446853196048	2
0	3486	3.446853196048	3
0	3492	3.455357196048	2
0	3492	3.455357196048	3
0	3505	3.463861196048	2
0	3505	3.463861196048	3
0	3519	3.472365196048	2
0	3519	3.472365196048	3
0	3536	3.480869196048	2
0	3536	3.480869196048	3
0	3550	3.489373196048	2
0	3550	3.489373196048	3
0	3560	3.497877196048	2
0	3560	3.497877196048	3
0	3568	3.506381196048	2
0	3568	3.506381196048	3
0	3577	3.514885196048	2
0	3577	3.514885196048	3
0	3590	3.523389196048	2
0	3590	3.523389196048	3
0	3607	3.531893196048	2
0	3607	3.531893196048	3
0	3613	3.540397196048	2
0	3613	3.540397196048	3
0	3622	3.548901196048	2
0	3622	3.548901196048	3
0	3631	3.557405196048	2
0	3631	3.557405196048	3
0	3645	3.565909196048	2
0	3645	3.565909196048	3
0	3654	3.574413196048	2
0	3654	3.574413196048	3
0	3664	3.582917196048	2
0	3664	3.582917196048	3
0	3681	3.591421196048	2
0	3681	3.591421196048	3
0	3695	3.599925196048	2
0	3695	3.599925196048	3
0	3714	3.608429196048	2
0	3714	3.608429196048	3
0	3720	3.616933196048	2
0	3720	3.616933196048	3
0	3729	3.625437196048	2
0	3729	3.625437196048	3
0	3742	3.633941196048	2
0	3742	3.633941196048	3
0	3759	3.642445196048	2
0	3759	3.642445196048	3
0	3769	3.650949196048	2
0	3769	3.650949196048	3
0	3778	3.659453196048	2
0	3778	3.659453196048	3
0	3784	3.667957196048	2
0	3784	3.667957196048	3
0	3793	3.676461196048	2
0	3793	3.676461196048	3
0	3803	3.684965196048	2
0	3803	3.684965196048	3
0	3812	3.693469196048	2
0	3812	3.693469196048	3
0	3820	3.701973196048	2
0	3828	3.725954389812	3
0	3831	3.734458389812	2
0	3840	3.740770548325	3
0	3852	3.749274548325	2
0	3852	3.749274548325	3
0	3861	3.757778548325	2
0	3861	3.757778548325	3
0	3875	3.766282548325	2
0	3875	3.766282548325	3
0	3884	3.774786548325	2
0	3884	3.774786548325	3
0	3890	3.783290548325	2
0	3890	3.783290548325	3
0	3899	3.791794548325	2
0	3908	3.791980796881	3
0	3918	3.800484796881	2
0	3918	3.800484796881	3
0	3931	3.808988796881	2
0	3931	3.808988796881	3
0	3944	3.817492796881	2
0	3944	3.817492796881	3
0	3958	3.825996796881	2
0	3958	3.825996796881	3
0	3967	3.834500796881	2
0	3967	3.834500796881	3
0	3976	3.843004796881	2
0	3987	3.865086958388	3
0	3994	3.873590958388	2
0	3994	3.873590958388	3
0	4006	3.882094958388	2
0	4006	3.882094958388	3
0	4015	3.890598958388	2
0	4028	3.905035653744	3
0	4031	3.913539653744	2
0	4040	3.916825993857	3
0	4044	3.925329993857	2
0	4051	3.947775351426	3
0	4058	3.956279351426	2
0	4058	3.956279351426	3
0	4066	3.964783351426	2
0	4077	3.977801054652	3
0	4080	3.986305054652	2
0	4092	4.004205006497	3
0	4099	4.012709006497	2
0	4099	4.012709006497	3
0	4107	4.021213006497	2
0	4114	4.025515684726	3
0	4118	4.034019684726	2
0	4124	4.037202227824	3
0	4128	4.045706227824	2
0	4138	4.064005906037	3
0	4145	4.072509906037	2
0	4145	4.072509906037	3
0	4153	4.081013906037	2
0	4160	4.082556131147	3
0	4164	4.091060131147	2
0	4173	4.09197081151	3
0	4178	4.10047481151	2
0	4189	4.115251390029	3
0	4192	4.123755390029	2
0	4201	4.130119828118	3
0	4213	4.138623828118	2
0	4213	4.138623828118	3
0	4218	4.147127828118	2
0	4218	4.147127828118	3
0	4231	4.155631828118	2
0	4231	4.155631828118	3
0	4252	4.164135828118	2
0	4252	4.164135828118	3
0	4261	4.172639828118	2
0	4261	4.172639828118	3
0	4282	4.181143828118	2
0	4282	4.181143828118	3
0	4295	4.189647828118	2
0	4295	4.189647828118	3
0	4305	4.198151828118	2
0	4305	4.198151828118	3
0	4316	4.206655828118	2
0	4316	4.206655828118	3
0	4325	4.215159828118	2
0	4325	4.215159828118	3
0	4334	4.223663828118	2
0	4334	4.223663828118	3
0	4340	4.232167828118	2
0	4349	4.232611513367	3
0	4353	4.241115513367	2
0	4364	4.275553534077	3
0	4367	4.284057534077	2
0	4376	4.31504132004	3
0	4379	4.32354532004	2
0	4385	4.328246942406	3
0	4389	4.336750942406	2
0	4396	4.348410331207	3
0	4399	4.356914331207	2
0	4408	4.36096023472	3
0	4412	4.36946423472	2
0	4419	4.379736113328	3
0	4422	4.388240113328	2
0	4431	4.389118726405	3
0	4434	4.397622726405	2
0	4443	4.397925166009	3
0	4449	4.406429166009	2
0	4460	4.417645404831	3
0	4467	4.426149404831	2
0	4467	4.426149404831	3
0	4479	4.434653404831	2
0	4479	4.434653404831	3
0	4485	4.443157404831	2
0	4493	4.453277210376	3
0	4500	4.461781210376	2
0	4500	4.461781210376	3
0	4509	4.470285210376	2
0	4509	4.470285210376	3
0	4515	4.478789210376	2
0	4526	4.488919955095	3
0	4529	4.497423955095	2
0	4541	4.519586167695	3
0	4548	4.528090167695	2
0	4548	4.528090167695	3
0	4557	4.536594167695	2
0	4557	4.536594167695	3
0	4566	4.545098167695	2
0	4574	4.576244219282	3
0	4585	4.584748219282	2
0	4585	4.584748219282	3
0	4597	4.593252219282	2
0	4597	4.593252219282	3
0	4616	4.601756219282	2
0	4616	4.601756219282	3
0	4625	4.610260219282	2
0	4625	4.610260219282	3
0	4634	4.618764219282	2
0	4634	4.618764219282	3
0	4647	4.627268219282	2
0	4647	4.627268219282	3
0	4660	4.635772219282	2
0	4660	4.635772219282	3
0	4669	4.644276219282	2
0	4679	4.646442536293	3
0	4687	4.654946536293	2
0	4687	4.654946536293	3
0	4696	4.663450536293	2
0	4696	4.663450536293	3
0	4705	4.671954536293	2
0	4716	4.68699776936	3
0	4719	4.69550176936	2
0	4728	4.695745850017	3
0	4733	4.704249850017	2
0	4744	4.724342669295	3
0	4751	4.732846669295	2
0	4751	4.732846669295	3
0	4760	4.741350669295	2
0	4760	4.741350669295	3
0	4781	4.749854669295	2
0	4781	4.749854669295	3
0	4794	4.758358669295	2
0	4794	4.758358669295	3
0	4807	4.766862669295	2
0	4807	4.766862669295	3
0	4816	4.775366669295	2
0	4816	4.775366669295	3
0	4822	4.783870669295	2
0	4822	4.783870669295	3
0	4831	4.792374669295	2
0	4844	4.806174706476	3
0	4851	4.814678706476	2
0	4851	4.814678706476	3
0	4856	4.823182706476	2
0	4867	4.84005397412	3
0	4874	4.84855797412	2
0	4874	4.84855797412	3
0	4882	4.85706197412	2
0	4888	4.858279164479	3
0	4896	4.866783164479	2
0	4896	4.866783164479	3
0	4905	4.875287164479	2
0	4916	4.896689164748	3
0	4925	4.905193164748	2
0	4925	4.905193164748	3
0	4933	4.913697164748	2
0	4942	4.914253056521	3
0	4946	4.922757056521	2
0	4956	4.927094046397	3
0	4960	4.935598046397	2
0	4966	4.937823317055	3
0	4978	4.946327317055	2
0	4978	4.946327317055	3
0	4986	4.954831317055	2
0	4986	4.954831317055	3
0	4995	4.963335317055	2
0	5003	4.994573476479	3
0	5008	5.003077476479	2
0	5014	5.006752983979	3
0	5022	5.015256983979	2
0	5022	5.015256983979	3
0	5031	5.023760983979	2
0	5031	5.023760983979	3
0	5040	5.032264983979	2
0	5047	5.037794156085	3
0	5063	5.046298156085	2
0	5063	5.046298156085	3
0	5079	5.054802156085	2
0	5079	5.054802156085	3
0	5085	5.063306156085	2
0	5085	5.063306156085	3
0	5094	5.071810156085	2
0	5094	5.071810156085	3
0	5112	5.080314156085	2
0	5112	5.080314156085	3
0	5118	5.088818156085	2
0	5118	5.088818156085	3
0	5128	5.097322156085	2
0	5128	5.097322156085	3
0	5139	5.105826156085	2
0	5139	5.105826156085	3
0	5149	5.114330156085	2
0	5149	5.114330156085	3
0	5155	5.122834156085	2
0	5155	5.122834156085	3
0	5164	5.131338156085	2
0	5172	5.162285762789	3
0	5179	5.170789762789	2
0	5179	5.170789762789	3
0	5184	5.179293762789	2
0	5194	5.182515506729	3
0	5198	5.191019506729	2
0	5207	5.209998593368	3
0	5214	5.218502593368	2
0	5214	5.218502593368	3
0	5231	5.227006593368	2
0	5231	5.227006593368	3
0	5237	5.235510593368	2
0	5237	5.235510593368	3
0	5243	5.244014593368	2
0	5243	5.244014593368	3
0	5252	5.252518593368	2
0	5263	5.276836504453	3
0	5270	5.285340504453	2
0	5270	5.285340504453	3
0	5282	5.293844504453	2
0	5282	5.293844504453	3
0	5290	5.302348504453	2
0	5301	5.339290617884	3
0	5304	5.347794617884	2
0	5314	5.362640032891	3
0	5321	5.371144032891	2
0	5321	5.371144032891	3
0	5333	5.379648032891	2
0	5333	5.379648032891	3
0	5350	5.388152032891	2
0	5350	5.388152032891	3
0	5356	5.396656032891	2
0	5356	5.396656032891	3
0	5367	5.405160032891	2
0	5374	5.40895969451	3
0	5382	5.41746369451	2
0	5382	5.41746369451	3
0	5394	5.42596769451	2
0	5394	5.42596769451	3
0	5403	5.43447169451	2
0	5409	5.434857954511	3
0	5413	5.443361954511	2
0	5421	5.464297624609	3
0	5424	5.472801624609	2
0	5433	5.479848158407	3
0	5441	5.488352158407	2
0	5441	5.488352158407	3
0	5449	5.496856158407	2
0	5458	5.505909438814	3
0	5466	5.514413438814	2
0	5466	5.514413438814	3
0	5474	5.522917438814	2
0	5484	5.524888826626	3
0	5492	5.533392826626	2
0	5492	5.533392826626	3
0	5501	5.541896826626	2
0	5501	5.541896826626	3
0	5507	5.550400826626	2
0	5514	5.55467125674	3
0	5518	5.56317525674	2
0	5525	5.593043161829	3
0	5530	5.601547161829	2
0	5536	5.60679609825	3
0	5544	5.61530009825	2
0	5544	5.61530009825	3
0	5553	5.62380409825	2
0	5553	5.62380409825	3
0	5562	5.63230809825	2
0	5570	5.654467231723	3
0	5573	5.662971231723	2
0	5585	5.712518281112	3
0	5592	5.721022281112	2
0	5592	5.721022281112	3
0	5601	5.729526281112	2
0	5601	5.729526281112	3
0	5614	5.738030281112	2
0	5614	5.738030281112	3
0	5627	5.746534281112	2
0	5627	5.746534281112	3
0	5648	5.755038281112	2
0	5648	5.755038281112	3
0	5661	5.763542281112	2
0	5661	5.763542281112	3
0	5674	5.772046281112	2
0	5674	5.772046281112	3
0	5683	5.780550281112	2
0	5683	5.780550281112	3
0	5696	5.789054281112	2
0	5696	5.789054281112	3
0	5702	5.797558281112	2
0	5702	5.797558281112	3
0	5714	5.806062281112	2
0	5714	5.806062281112	3
0	5728	5.814566281112	2
0	5728	5.814566281112	3
0	5737	5.823070281112	2
0	5737	5.823070281112	3
0	5758	5.831574281112	2
0	5758	5.831574281112	3
0	5768	5.840078281112	2
0	5768	5.840078281112	3
0	5777	5.848582281112	2
0	5777	5.848582281112	3
0	5786	5.857086281112	2
0	5786	5.857086281112	3
0	5795	5.865590281112	2
0	5802	5.869158436099	3
0	5810	5.877662436099	2
0	5810	5.877662436099	3
0	5815	5.886166436099	2
0	5825	5.900422137593	3
0	5828	5.908926137593	2
0	5835	5.95286213461	3
0	5838	5.96136613461	2
0	5847	5.963263027458	3
0	5855	5.971767027458	2
0	5855	5.971767027458	3
0	5867	5.980271027458	2
0	5867	5.980271027458	3
0	5880	5.988775027458	2
0	5880	5.988775027458	3
0	5893	5.997279027458	2
0	5893	5.997279027458	3
0	5908	6.005783027458	2
0	5908	6.005783027458	3
0	5918	6.014287027458	2
0	5918	6.014287027458	3
0	5935	6.022791027458	2
0	5935	6.022791027458	3
0	5941	6.031295027458	2
0	5941	6.031295027458	3
0	5950	6.039799027458	2
0	5958	6.061674216353	3
0	5961	6.070178216353	2
0	5967	6.07205600506	3
0	5975	6.08056000506	2
0	5975	6.08056000506	3
0	5980	6.08906400506	2
0	5987	6.098708789108	3
0	5993	6.107212789108	2
0	6003	6.139423957684	3
0	6006	6.147927957684	2
0	6016	6.158899837889	3
0	6019	6.167403837889	2
0	6028	6.168468619599	3
0	6035	6.176972619599	2
0	6035	6.176972619599	3
0	6044	6.185476619599	2
0	6054	6.208017560319	3
0	6069	6.216521560319	2
0	6069	6.216521560319	3
0	6077	6.225025560319	2
0	6077	6.225025560319	3
0	6086	6.233529560319	2
0	6086	6.233529560319	3
0	6092	6.242033560319	2
0	6100	6.262365587777	3
0	6107	6.270869587777	2
0	6107	6.270869587777	3
0	6115	6.279373587777	2
0	6125	6.281026144435	3
0	6129	6.289530144435	2
0	6135	6.298909133475	3
0	6141	6.307413133475	2
0	6151	6.356685509472	3
0	6154	6.365189509472	2
0	6161	6.383770555172	3
0	6164	6.392274555172	2
0	6173	6.402606215427	3
0	6180	6.411110215427	2
0	6180	6.411110215427	3
0	6196	6.419614215427	2
0	6196	6.419614215427	3
0	6202	6.428118215427	2
0	6202	6.428118215427	3
0	6211	6.436622215427	2
0	6222	6.447956622447	3
0	6233	6.456460622447	2
0	6233	6.456460622447	3
0	6246	6.464964622447	2
0	6246	6.464964622447	3
0	6263	6.473468622447	2
0	6263	6.473468622447	3
0	6272	6.481972622447	2
0	6272	6.481972622447	3
0	6282	6.490476622447	2
0	6282	6.490476622447	3
0	6291	6.498980622447	2
0	6291	6.498980622447	3
0	6310	6.507484622447	2
0	6310	6.507484622447	3
0	6323	6.515988622447	2
0	6323	6.515988622447	3
0	6336	6.524492622447	2
0	6336	6.524492622447	3
0	6353	6.532996622447	2
0	6353	6.532996622447	3
0	6359	6.541500622447	2
0	6359	6.541500622447	3
0	6365	6.550004622447	2
0	6365	6.550004622447	3
0	6374	6.558508622447	2
0	6374	6.558508622447	3
0	6383	6.567012622447	2
0	6390	6.572833091894	3
0	6394	6.581337091894	2
0	6403	6.586277400887	3
0	6415	6.594781400887	2
0	6415	6.594781400887	3
0	6422	6.603285400887	2
0	6422	6.603285400887	3
0	6435	6.611789400887	2
0	6435	6.611789400887	3
0	6445	6.620293400887	2
0	6445	6.620293400887	3
0	6455	6.628797400887	2
0	6455	6.628797400887	3
0	6464	6.637301400887	2
0	6475	6.660543970593	3
0	6478	6.669047970593	2
0	6485	6.687883687507	3
0	6492	6.696387687507	2
0	6492	6.696387687507	3
0	6499	6.704891687507	2
0	6509	6.706726057269	3
0	6525	6.715230057269	2
0	6525	6.715230057269	3
0	6541	6.723734057269	2
0	6541	6.723734057269	3
0	6547	6.732238057269	2
0	6547	6.732238057269	3
0	6560	6.740742057269	2
0	6560	6.740742057269	3
0	6573	6.749246057269	2
0	6573	6.749246057269	3
0	6594	6.757750057269	2
0	6594	6.757750057269	3
0	6603	6.766254057269	2
0	6603	6.766254057269	3
0	6612	6.774758057269	2
0	6612	6.774758057269	3
0	6618	6.783262057269	2
0	6618	6.783262057269	3
0	6628	6.791766057269	2
0	6628	6.791766057269	3
0	6639	6.800270057269	2
0	6639	6.800270057269	3
0	6652	6.808774057269	2
0	6652	6.808774057269	3
0	6662	6.817278057269	2
0	6662	6.817278057269	3
0	6668	6.825782057269	2
0	6675	6.829132073789	3
0	6679	6.837636073789	2
0	6685	6.838837555304	3
0	6692	6.847341555304	2
0	6692	6.847341555304	3
0	6701	6.855845555304	2
0	6712	6.876232414301	3
0	6719	6.884736414301	2
0	6719	6.884736414301	3
0	6727	6.893240414301	2
0	6737	6.895456626469	3
0	6751	6.903960626469	2
0	6751	6.903960626469	3
0	6759	6.912464626469	2
0	6759	6.912464626469	3
0	6772	6.920968626469	2
0	6772	6.920968626469	3
0	6778	6.929472626469	2
0	6786	6.945171401652	3
0	6793	6.953675401652	2
0	6793	6.953675401652	3
0	6802	6.962179401652	2
0	6802	6.962179401652	3
0	6812	6.970683401652	2
0	6812	6.970683401652	3
0	6822	6.979187401652	2
0	6822	6.979187401652	3
0	6832	6.987691401652	2
0	6832	6.987691401652	3
0	6841	6.996195401652	2
0	6851	7.010731656997	3
0	6858	7.019235656997	2
0	6858	7.019235656997	3
0	6874	7.027739656997	2
0	6874	7.027739656997	3
0	6884	7.036243656997	2
0	6884	7.036243656997	3
0	6890	7.044747656997	2
0	6890	7.044747656997	3
0	6899	7.053251656997	2
0	6907	7.065109905672	3
0	6914	7.073613905672	2
0	6914	7.073613905672	3
0	6931	7.082117905672	2
0	6931	7.082117905672	3
0	6937	7.090621905672	2
0	6937	7.090621905672	3
0	6946	7.099125905672	2
0	6946	7.099125905672	3
0	6958	7.107629905672	2
0	6958	7.107629905672	3
0	6971	7.116133905672	2
0	6971	7.116133905672	3
0	6984	7.124637905672	2
0	6984	7.124637905672	3
0	6993	7.133141905672	2
0	7003	7.138903407382	3
0	7007	7.147407407382	2
0	7017	7.158002392739	3
0	7024	7.166506392739	2
0	7024	7.166506392739	3
0	7029	7.175010392739	2
0	7037	7.192885316439	3
0	7042	7.201389316439	2
0	7051	7.208488786143	3
0	7055	7.216992786143	2
0	7064	7.217318306067	3
0	7067	7.225822306067	2
0	7077	7.235443163891	3
0	7081	7.243947163891	2
0	7090	7.249288329051	3
0	7094	7.257792329051	2
0	7100	7.266970062371	3
0	7104	7.275474062371	2
0	7114	7.292274072154	3
0	7119	7.300778072154	2
0	7129	7.316388175554	3
0	7140	7.324892175554	2
0	7140	7.324892175554	3
0	7152	7.333396175554	2
0	7152	7.333396175554	3
0	7165	7.341900175554	2
0	7165	7.341900175554	3
0	7175	7.350404175554	2
0	7175	7.350404175554	3
0	7181	7.358908175554	2
0	7181	7.358908175554	3
0	7198	7.367412175554	2
0	7198	7.367412175554	3
0	7204	7.375916175554	2
0	7204	7.375916175554	3
0	7213	7.384420175554	2
0	7223	7.387099220559	3
0	7231	7.395603220559	2
0	7231	7.395603220559	3
0	7242	7.404107220559	2
0	7242	7.404107220559	3
0	7248	7.412611220559	2
0	7259	7.431163373073	3
0	7270	7.439667373073	2
0	7270	7.439667373073	3
0	7282	7.448171373073	2
0	7282	7.448171373073	3
0	7295	7.456675373073	2
0	7295	7.456675373073	3
0	7304	7.465179373073	2
0	7304	7.465179373073	3
0	7313	7.473683373073	2
0	7326	7.503631433339	3
0	7329	7.512135433339	2
0	7338	7.519318929959	3
0	7346	7.527822929959	2
0	7346	7.527822929959	3
0	7355	7.536326929959	2
0	7355	7.536326929959	3
0	7368	7.544830929959	2
0	7368	7.544830929959	3
0	7381	7.553334929959	2
0	7381	7.553334929959	3
0	7390	7.561838929959	2
0	7399	7.562924467921	3
0	7407	7.571428467921	2
0	7407	7.571428467921	3
0	7417	7.579932467921	2
0	7417	7.579932467921	3
0	7426	7.588436467921	2
0	7436	7.591196805592	3
0	7440	7.599700805592	2
0	7448	7.608996287972	3
0	7456	7.617500287972	2
0	7456	7.617500287972	3
0	7468	7.626004287972	2
0	7468	7.626004287972	3
0	7478	7.634508287972	2
0	7478	7.634508287972	3
0	7491	7.643012287972	2
0	7491	7.643012287972	3
0	7500	7.651516287972	2
0	7510	7.660648141958	3
0	7522	7.669152141958	2
0	7522	7.669152141958	3
0	7530	7.677656141958	2
0	7530	7.677656141958	3
0	7539	7.686160141958	2
0	7545	7.687598462227	3
0	7557	7.696102462227	2
0	7557	7.696102462227	3
0	7568	7.704606462227	2
0	7568	7.704606462227	3
0	7578	7.713110462227	2
0	7578	7.713110462227	3
0	7588	7.721614462227	2
0	7588	7.721614462227	3
0	7601	7.730118462227	2
0	7601	7.730118462227	3
0	7607	7.738622462227	2
0	7614	7.74412923851	3
0	7622	7.75263323851	2
0	7622	7.75263323851	3
0	7630	7.76113723851	2
0	7638	7.792808812393	3
0	7643	7.801312812393	2
0	7652	7.807293666324	3
0	7660	7.815797666324	2
0	7660	7.815797666324	3
0	7669	7.824301666324	2
0	7669	7.824301666324	3
0	7675	7.832805666324	2
0	7682	7.837052620522	3
0	7690	7.845556620522	2
0	7690	7.845556620522	3
0	7703	7.854060620522	2
0	7703	7.854060620522	3
0	7717	7.862564620522	2
0	7717	7.862564620522	3
0	7726	7.871068620522	2
0	7726	7.871068620522	3
0	7735	7.879572620522	2
0	7735	7.879572620522	3
0	7741	7.888076620522	2
0	7751	7.897560295862	3
0	7761	7.906064295862	2
0	7761	7.906064295862	3
0	7766	7.914568295862	2
0	7777	7.9294489512	3
0	7780	7.9379529512	2
0	7787	7.97155892651	3
0	7794	7.98006292651	2
0	7794	7.98006292651	3
0	7798	7.98856692651	2
0	7807	8.082761369563	3
0	7814	8.091265369563	2
0	7814	8.091265369563	3
0	7826	8.099769369563	2
0	7826	8.099769369563	3
0	7837	8.108273369563	2
0	7837	8.108273369563	3
0	7846	8.116777369563	2
0	7846	8.116777369563	3
0	7851	8.125281369563	2
0	7851	8.125281369563	3
0	7856	8.133785369563	2
0	7863	8.144350051955	3
0	7866	8.152854051955	2
0	7872	8.163983368842	3
0	7875	8.172487368842	2
0	7880	8.179429074112	3
0	7884	8.187933074112	2
0	7889	8.189258328633	3
0	7892	8.197762328633	2
0	7901	8.21991689811	3
0	7908	8.22842089811	2
0	7908	8.22842089811	3
0	7912	8.23692489811	2
0	7919	8.252894432429	3
0	7922	8.261398432429	2
0	7928	8.274442315695	3
0	7935	8.282946315695	2
0	7935	8.282946315695	3
0	7939	8.291450315695	2
0	7945	8.295029603803	3
0	7963	8.303533603803	2
0	7963	8.303533603803	3
0	7971	8.312037603803	2
0	7971	8.312037603803	3
0	7976	8.320541603803	2
0	7976	8.320541603803	3
0	7989	8.329045603803	2
0	7989	8.329045603803	3
0	7998	8.337549603803	2
0	7998	8.337549603803	3
0	8003	8.346053603803	2
0	8003	8.346053603803	3
0	8008	8.354557603803	2
0	8008	8.354557603803	3
0	8013	8.363061603803	2
0	8019	8.37085051366	3
0	8027	8.37935451366	2
0	8027	8.37935451366	3
0	8035	8.38785851366	2
0	8035	8.38785851366	3
0	8040	8.39636251366	2
0	8046	8.398316072434	3
0	8060	8.406820072434	2
0	8060	8.406820072434	3
0	8064	8.415324072434	2
0	8064	8.415324072434	3
0	8077	8.423828072434	2
0	8077	8.423828072434	3
0	8082	8.432332072434	2
0	8082	8.432332072434	3
0	8087	8.440836072434	2
0	8093	8.446927417506	3
0	8097	8.455431417506	2
0	8102	8.455737083302	3
0	8113	8.464241083302	2
0	8113	8.464241083302	3
0	8118	8.472745083302	2
0	8118	8.472745083302	3
0	8123	8.481249083302	2
0	8130	8.49602546914	3
0	8135	8.50452946914	2
0	8140	8.506501937761	3
0	8152	8.515005937761	2
0	8152	8.515005937761	3
0	8164	8.523509937761	2
0	8164	8.523509937761	3
0	8173	8.532013937761	2
0	8173	8.532013937761	3
0	8186	8.540517937761	2
0	8186	8.540517937761	3
0	8195	8.549021937761	2
0	8195	8.549021937761	3
0	8200	8.557525937761	2
0	8200	8.557525937761	3
0	8209	8.566029937761	2
0	8209	8.566029937761	3
0	8218	8.574533937761	2
0	8218	8.574533937761	3
0	8227	8.583037937761	2
0	8227	8.583037937761	3
0	8232	8.591541937761	2
0	8232	8.591541937761	3
0	8243	8.600045937761	2
0	8243	8.600045937761	3
0	8248	8.608549937761	2
0	8248	8.608549937761	3
0	8253	8.617053937761	2
0	8260	8.627450038275	3
0	8263	8.635954038275	2
0	8268	8.645525910222	3
0	8272	8.654029910222	2
0	8278	8.668159696145	3
0	8285	8.676663696145	2
0	8285	8.676663696145	3
0	8293	8.685167696145	2
0	8293	8.685167696145	3
0	8298	8.693671696145	2
0	8307	8.744425480805	3
0	8314	8.752929480805	2
0	8314	8.752929480805	3
0	8326	8.761433480805	2
0	8326	8.761433480805	3
0	8331	8.769937480805	2
0	8331	8.769937480805	3
0	8336	8.778441480805	2
0	8343	8.789142517292	3
0	8346	8.797646517292	2
0	8354	8.82934569856	3
0	8357	8.83784969856	2
0	8362	8.844595131993	3
0	8370	8.853099131993	2
0	8370	8.853099131993	3
0	8386	8.861603131993	2
0	8386	8.861603131993	3
0	8399	8.870107131993	2
0	8399	8.870107131993	3
0	8408	8.878611131993	2
0	8408	8.878611131993	3
0	8417	8.887115131993	2
0	8417	8.887115131993	3
0	8422	8.895619131993	2
0	8422	8.895619131993	3
0	8437	8.904123131993	2
0	8437	8.904123131993	3
0	8446	8.912627131993	2
0	8446	8.912627131993	3
0	8455	8.921131131993	2
0	8455	8.921131131993	3
0	8460	8.929635131993	2
0	8460	8.929635131993	3
0	8465	8.938139131993	2
0	8465	8.938139131993	3
0	8474	8.946643131993	2
0	8474	8.946643131993	3
0	8483	8.955147131993	2
0	8483	8.955147131993	3
0	8488	8.963651131993	2
0	8488	8.963651131993	3
0	8493	8.972155131993	2
0	8500	8.993654271463	3
0	8513	9.002158271463	2
0	8513	9.002158271463	3
0	8525	9.010662271463	2
0	8525	9.010662271463	3
0	8530	9.019166271463	2
0	8530	9.019166271463	3
0	8535	9.027670271463	2
0	8535	9.027670271463	3
0	8548	9.036174271463	2
0	8548	9.036174271463	3
0	8557	9.044678271463	2
0	8557	9.044678271463	3
0	8562	9.053182271463	2
0	8562	9.053182271463	3
0	8571	9.061686271463	2
0	8571	9.061686271463	3
0	8576	9.070190271463	2
0	8581	9.071345615813	3
0	8585	9.079849615813	2
0	8591	9.081144351786	3
0	8594	9.089648351786	2
0	8600	9.095791598248	3
0	8618	9.104295598248	2
0	8618	9.104295598248	3
0	8634	9.112799598248	2
0	8634	9.112799598248	3
0	8639	9.121303598248	2
0	8639	9.121303598248	3
0	8644	9.129807598248	2
0	8644	9.129807598248	3
0	8649	9.138311598248	2
0	8649	9.138311598248	3
0	8654	9.146815598248	2
0	8654	9.146815598248	3
0	8663	9.155319598248	2
0	8663	9.155319598248	3
0	8668	9.163823598248	2
0	8675	9.176679446911	3
0	8686	9.185183446911	2
0	8686	9.185183446911	3
0	8690	9.193687446911	2
0	8690	9.193687446911	3
0	8697	9.202191446911	2
0	8704	9.212765512687	3
0	8715	9.221269512687	2
0	8715	9.221269512687	3
0	8719	9.229773512687	2
0	8719	9.229773512687	3
0	8732	9.238277512687	2
0	8732	9.238277512687	3
0	8741	9.246781512687	2
0	8741	9.246781512687	3
0	8746	9.255285512687	2
0	8746	9.255285512687	3
0	8751	9.263789512687	2
0	8758	9.282645044767	3
0	8761	9.291149044767	2
0	8766	9.294886965503	3
0	8772	9.303390965503	2
0	8777	9.303711552412	3
0	8784	9.312215552412	2
0	8784	9.312215552412	3
0	8789	9.320719552412	2
0	8795	9.327673176726	3
0	8803	9.336177176726	2
0	8803	9.336177176726	3
0	8807	9.344681176726	2
0	8814	9.370554859983	3
0	8817	9.379058859983	2
0	8823	9.394244860267	3
0	8828	9.402748860267	2
0	8833	9.405782105538	3
0	8841	9.414286105538	2
0	8841	9.414286105538	3
0	8849	9.422790105538	2
0	8849	9.422790105538	3
0	8854	9.431294105538	2
0	8861	9.450131750353	3
0	8864	9.458635750353	2
0	8869	9.459054356201	3
0	8880	9.467558356201	2
0	8880	9.467558356201	3
0	8885	9.476062356201	2
0	8885	9.476062356201	3
0	8894	9.484566356201	2
0	8894	9.484566356201	3
0	8899	9.493070356201	2
0	8908	9.508669066098	3
0	8915	9.517173066098	2
0	8915	9.517173066098	3
0	8919	9.525677066098	2
0	8924	9.527011480543	3
0	8932	9.535515480543	2
0	8932	9.535515480543	3
0	8937	9.544019480543	2
0	8944	9.568172932013	3
0	8947	9.576676932013	2
0	8952	9.579628884032	3
0	8956	9.588132884032	2
0	8961	9.589276194845	3
0	8968	9.597780194845	2
0	8968	9.597780194845	3
0	8975	9.606284194845	2
0	8982	9.625277365991	3
0	8989	9.633781365991	2
0	8989	9.633781365991	3
0	8993	9.642285365991	2
0	8999	9.650120140797	3
0	9003	9.658624140797	2
0	9011	9.70060386024	3
0	9014	9.70910786024	2
0	9019	9.718960109456	3
0	9023	9.727464109456	2
0	9028	9.72774251393	3
0	9039	9.73624651393	2
0	9039	9.73624651393	3
0	9048	9.74475051393	2
0	9048	9.74475051393	3
0	9061	9.75325451393	2
0	9061	9.75325451393	3
0	9074	9.76175851393	2
0	9074	9.76175851393	3
0	9083	9.77026251393	2
0	9083	9.77026251393	3
0	9092	9.77876651393	2
0	9092	9.77876651393	3
0	9105	9.78727051393	2
0	9105	9.78727051393	3
0	9110	9.79577451393	2
0	9110	9.79577451393	3
0	9117	9.80427851393	2
0	9117	9.80427851393	3
0	9126	9.81278251393	2
0	9126	9.81278251393	3
0	9131	9.82128651393	2
0	9131	9.82128651393	3
0	9140	9.82979051393	2
0	9140	9.82979051393	3
0	9149	9.83829451393	2
0	9149	9.83829451393	3
0	9154	9.84679851393	2
0	9154	9.84679851393	3
0	9159	9.85530251393	2
0	9165	9.861183754373	3
0	9169	9.869687754373	2
0	9177	9.900551196522	3
0	9184	9.909055196522	2
0	9184	9.909055196522	3
0	9192	9.917559196522	2
0	9192	9.917559196522	3
0	9197	9.926063196522	2
0	9204	9.988454054393	3
0	9207	9.996958054393	2
0	9215	10.041417915643	3
0	9218	10.049921915643	2
0	9223	10.05251351068	3
0	9231	10.06101751068	2
0	9231	10.06101751068	3
0	9247	10.06952151068	2
0	9247	10.06952151068	3
0	9252	10.07802551068	2
0	9252	10.07802551068	3
0	9257	10.08652951068	2
0	9257	10.08652951068	3
0	9262	10.09503351068	2
0	9270	10.104861595917	3
0	9278	10.113365595917	2
0	9278	10.113365595917	3
0	9282	10.121869595917	2
0	9287	10.121881491625	3
0	9295	10.130385491625	2
0	9295	10.130385491625	3
0	9300	10.138889491625	2
0	9307	10.161274979603	3
0	9310	10.169778979603	2
0	9315	10.176923093519	3
0	9323	10.185427093519	2
0	9323	10.185427093519	3
0	9327	10.193931093519	2
0	9335	10.200551428171	3
0	9347	10.209055428171	2
0	9347	10.209055428171	3
0	9355	10.217559428171	2
0	9355	10.217559428171	3
0	9368	10.226063428171	2
0	9368	10.226063428171	3
0	9377	10.234567428171	2
0	9377	10.234567428171	3
0	9386	10.243071428171	2
0	9386	10.243071428171	3
0	9399	10.251575428171	2
0	9399	10.251575428171	3
0	9404	10.260079428171	2
0	9404	10.260079428171	3
0	9417	10.268583428171	2
0	9417	10.268583428171	3
0	9426	10.277087428171	2
0	9426	10.277087428171	3
0	9439	10.285591428171	2
0	9439	10.285591428171	3
0	9444	10.294095428171	2
0	9444	10.294095428171	3
0	9451	10.302599428171	2
0	9451	10.302599428171	3
0	9460	10.311103428171	2
0	9460	10.311103428171	3
0	9465	10.319607428171	2
0	9465	10.319607428171	3
0	9470	10.328111428171	2
0	9470	10.328111428171	3
0	9475	10.336615428171	2
0	9481	10.340270206354	3
0	9489	10.348774206354	2
0	9489	10.348774206354	3
0	9493	10.357278206354	2
0	9499	10.365877495739	3
0	9507	10.374381495739	2
0	9507	10.374381495739	3
0	9515	10.382885495739	2
0	9515	10.382885495739	3
0	9520	10.391389495739	2
0	9526	10.395941198613	3
0	9536	10.404445198613	2
0	9536	10.404445198613	3
0	9544	10.412949198613	2
0	9544	10.412949198613	3
0	9549	10.421453198613	2
0	9555	10.431424000147	3
0	9567	10.439928000147	2
0	9567	10.439928000147	3
0	9575	10.448432000147	2
0	9575	10.448432000147	3
0	9584	10.456936000147	2
0	9584	10.456936000147	3
0	9589	10.465440000147	2
0	9589	10.465440000147	3
0	9598	10.473944000147	2
0	9598	10.473944000147	3
0	9603	10.482448000147	2
0	9612	10.50060752048	3
0	9619	10.50911152048	2
0	9619	10.50911152048	3
0	9627	10.51761552048	2
0	9627	10.51761552048	3
0	9636	10.52611952048	2
0	9636	10.52611952048	3
0	9645	10.53462352048	2
0	9645	10.53462352048	3
0	9650	10.54312752048	2
0	9657	10.57892412206	3
0	9660	10.58742812206	2
0	9665	10.593265477997	3
0	9675	10.601769477997	2
0	9675	10.601769477997	3
0	9683	10.610273477997	2
0	9683	10.610273477997	3
0	9688	10.618777477997	2
0	9695	10.637586349727	3
0	9702	10.646090349727	2
0	9702	10.646090349727	3
0	9706	10.654594349727	2
0	9711	10.654621257116	3
0	9715	10.663125257116	2
0	9722	10.685767834388	3
0	9725	10.694271834388	2
0	9730	10.69887935834	3
0	9740	10.70738335834	2
0	9740	10.70738335834	3
0	9752	10.71588735834	2
0	9752	10.71588735834	3
0	9757	10.72439135834	2
0	9757	10.72439135834	3
0	9766	10.73289535834	2
0	9766	10.73289535834	3
0	9775	10.74139935834	2
0	9775	10.74139935834	3
0	9780	10.74990335834	2
0	9787	10.772515223153	3
0	9790	10.781019223153	2
0	9796	10.79671155418	3
0	9801	10.80521555418	2
0	9807	10.817035224127	3
0	9810	10.825539224127	2
0	9816	10.846125597176	3
0	9823	10.854629597176	2
0	9823	10.854629597176	3
0	9835	10.863133597176	2
0	9835	10.863133597176	3
0	9844	10.871637597176	2
0	9844	10.871637597176	3
0	9849	10.880141597176	2
0	9849	10.880141597176	3
0	9862	10.888645597176	2
0	9862	10.888645597176	3
0	9875	10.897149597176	2
0	9875	10.897149597176	3
0	9886	10.905653597176	2
0	9886	10.905653597176	3
0	9891	10.914157597176	2
0	9891	10.914157597176	3
0	9896	10.922661597176	2
0	9896	10.922661597176	3
0	9901	10.931165597176	2
0	9907	10.933417832487	3
0	9911	10.941921832487	2
0	9917	10.959717340276	3
0	9920	10.968221340276	2
0	9926	10.983337353558	3
0	9929	10.991841353558	2
0	9934	10.996038511259	3
0	9944	11.004542511259	2
0	9944	11.004542511259	3
0	9952	11.013046511259	2
0	9952	11.013046511259	3
0	9957	11.021550511259	2
0	9963	11.030917780614	3
0	9971	11.039421780614	2
0	9971	11.039421780614	3
0	9975	11.047925780614	2
0	9981	11.051541514185	3
0	9989	11.060045514185	2
0	9989	11.060045514185	3
0	9993	11.068549514185	2
0	9999	11.07238745888	3
0	10003	11.08089145888	2
0	10009	11.092163346513	3
0	10018	11.100667346513	2
0	10018	11.100667346513	3
0	10026	11.109171346513	2
0	10026	11.109171346513	3
0	10043	11.117675346513	2
0	10043	11.117675346513	3
0	10048	11.126179346513	2
0	10048	11.126179346513	3
0	10053	11.134683346513	2
0	10053	11.134683346513	3
0	10062	11.143187346513	2
0	10062	11.143187346513	3
0	10071	11.151691346513	2
0	10071	11.151691346513	3
0	10076	11.160195346513	2
0	10083	11.193933073353	3
0	10088	11.202437073353	2
0	10094	11.24230801044	3
0	10097	11.25081201044	2
0	10105	11.301292444393	3
0	10112	11.309796444393	2
0	10112	11.309796444393	3
0	10116	11.318300444393	2
0	10123	11.336224707785	3
0	10130	11.344728707785	2
0	10130	11.344728707785	3
0	10138	11.353232707785	2
0	10138	11.353232707785	3
0	10143	11.361736707785	2
0	10149	11.363941311067	3
0	10157	11.372445311067	2
0	10157	11.372445311067	3
0	10173	11.380949311067	2
0	10173	11.380949311067	3
0	10190	11.389453311067	2
0	10190	11.389453311067	3
0	10199	11.397957311067	2
0	10199	11.397957311067	3
0	10206	11.406461311067	2
0	10206	11.406461311067	3
0	10223	11.414965311067	2
0	10223	11.414965311067	3
0	10240	11.423469311067	2
0	10240	11.423469311067	3
0	10245	11.431973311067	2
0	10245	11.431973311067	3
0	10250	11.440477311067	2
0	10250	11.440477311067	3
0	10255	11.448981311067	2
0	10255	11.448981311067	3
0	10260	11.457485311067	2
0	10260	11.457485311067	3
0	10273	11.465989311067	2
0	10273	11.465989311067	3
0	10278	11.474493311067	2
0	10278	11.474493311067	3
0	10283	11.482997311067	2
0	10283	11.482997311067	3
0	10292	11.491501311067	2
0	10292	11.491501311067	3
0	10303	11.500005311067	2
0	10303	11.500005311067	3
0	10312	11.508509311067	2
0	10312	11.508509311067	3
0	10321	11.517013311067	2
0	10321	11.517013311067	3
0	10326	11.525517311067	2
0	10326	11.525517311067	3
0	10331	11.534021311067	2
0	10331	11.534021311067	3
0	10336	11.542525311067	2
0	10343	11.555218554358	3
0	10350	11.563722554358	2
0	10350	11.563722554358	3
0	10354	11.572226554358	2
0	10360	11.579255566787	3
0	10364	11.587759566787	2
0	10369	11.588979672401	3
0	10376	11.597483672401	2
0	10376	11.597483672401	3
0	10383	11.605987672401	2
0	10390	11.632360579087	3
0	10393	11.640864579087	2
0	10398	11.643305653126	3
0	10410	11.651809653126	2
0	10410	11.651809653126	3
0	10414	11.660313653126	2
0	10414	11.660313653126	3
0	10419	11.668817653126	2
0	10424	11.669566934778	3
0	10428	11.678070934778	2
0	10434	11.683767060439	3
0	10438	11.692271060439	2
0	10446	11.713539039751	3
0	10453	11.722043039751	2
0	10453	11.722043039751	3
0	10457	11.730547039751	2
0	10463	11.734177628713	3
0	10471	11.742681628713	2
0	10471	11.742681628713	3
0	10475	11.751185628713	2
0	10480	11.751797892519	3
0	10484	11.760301892519	2
0	10491	11.789023459409	3
0	10494	11.797527459409	2
0	10502	11.835546986651	3
0	10505	11.844050986651	2
0	10511	11.859277489919	3
0	10518	11.867781489919	2
0	10518	11.867781489919	3
0	10522	11.876285489919	2
0	10529	11.890855083832	3
0	10532	11.899359083832	2
0	10539	11.903068627275	3
0	10551	11.911572627275	2
0	10551	11.911572627275	3
0	10555	11.920076627275	2
0	10555	11.920076627275	3
0	10564	11.928580627275	2
0	10564	11.928580627275	3
0	10573	11.937084627275	2
0	10573	11.937084627275	3
0	10578	11.945588627275	2
0	10584	11.954773882757	3
0	10588	11.963277882757	2
0	10593	11.9713148827	3
0	10597	11.9798188827	2
0	10603	11.99024825667	3
0	10610	11.99875225667	2
0	10610	11.99875225667	3
0	10616	12.00725625667	2
0	10622	12.013900790845	3
0	10626	12.022404790845	2
0	10631	12.023452158073	3
0	10638	12.031956158073	2
0	10638	12.031956158073	3
0	10643	12.040460158073	2
0	10649	12.044638055971	3
0	10665	12.053142055971	2
0	10665	12.053142055971	3
0	10669	12.061646055971	2
0	10669	12.061646055971	3
0	10674	12.070150055971	2
0	10674	12.070150055971	3
0	10679	12.078654055971	2
0	10686	12.099226660108	3
0	10703	12.107730660108	2
0	10703	12.107730660108	3
0	10715	12.116234660108	2
0	10715	12.116234660108	3
0	10720	12.124738660108	2
0	10720	12.124738660108	3
0	10725	12.133242660108	2
0	10725	12.133242660108	3
0	10730	12.141746660108	2
0	10730	12.141746660108	3
0	10735	12.150250660108	2
0	10740	12.151146400315	3
0	10744	12.159650400315	2
0	10751	12.17353029737	3
0	10762	12.18203429737	2
0	10762	12.18203429737	3
0	10766	12.19053829737	2
0	10766	12.19053829737	3
0	10771	12.19904229737	2
0	10779	12.200957807675	3
0	10783	12.209461807675	2
0	10788	12.213922462212	3
0	10796	12.222426462212	2
0	10796	12.222426462212	3
0	10800	12.230930462212	2
0	10807	12.282379388949	3
0	10814	12.290883388949	2
0	10814	12.290883388949	3
0	10818	12.299387388949	2
0	10826	12.307866040446	3
0	10834	12.316370040446	2
0	10834	12.316370040446	3
0	10842	12.324874040446	2
0	10842	12.324874040446	3
0	10847	12.333378040446	2
0	10853	12.337950606754	3
0	10857	12.346454606754	2
0	10862	12.351530743567	3
0	10866	12.360034743567	2
0	10872	12.384871973066	3
0	10875	12.393375973066	2
0	10880	12.396519045864	3
0	10890	12.405023045864	2
0	10890	12.405023045864	3
0	10894	12.413527045864	2
0	10901	12.423641527261	3
0	10904	12.432145527261	2
0	10909	12.441233660382	3
0	10913	12.449737660382	2
0	10918	12.456165801316	3
0	10930	12.464669801316	2
0	10930	12.464669801316	3
0	10938	12.473173801316	2
0	10938	12.473173801316	3
0	10943	12.481677801316	2
0	10943	12.481677801316	3
0	10952	12.490181801316	2
0	10952	12.490181801316	3
0	10957	12.498685801316	2
0	10965	12.5002561348	3
0	10969	12.5087601348	2
0	10975	12.526011072215	3
0	10978	12.534515072215	2
0	10984	12.566792524611	3
0	10987	12.575296524611	2
0	10992	12.584678930142	3
0	10996	12.593182930142	2
0	11004	12.646546348279	3
0	11007	12.655050348279	2
0	11012	12.657993321359	3
0	11028	12.666497321359	2
0	11028	12.666497321359	3
0	11032	12.675001321359	2
0	11032	12.675001321359	3
0	11037	12.683505321359	2
0	11037	12.683505321359	3
0	11046	12.692009321359	2
0	11046	12.692009321359	3
0	11053	12.700513321359	2
0	11059	12.708586451529	3
0	11063	12.717090451529	2
0	11069	12.747459228964	3
0	11080	12.755963228964	2
0	11080	12.755963228964	3
0	11084	12.764467228964	2
0	11084	12.764467228964	3
0	11089	12.772971228964	2
0	11095	12.778155778666	3
0	11103	12.786659778666	2
0	11103	12.786659778666	3
0	11111	12.795163778666	2
0	11111	12.795163778666	3
0	11118	12.803667778666	2
0	11125	12.840828626189	3
0	11132	12.849332626189	2
0	11132	12.849332626189	3
0	11136	12.857836626189	2
0	11142	12.860122259542	3
0	11150	12.868626259542	2
0	11150	12.868626259542	3
0	11154	12.877130259542	2
0	11160	12.883812059106	3
0	11164	12.892316059106	2
0	11169	12.892814124155	3
0	11182	12.901318124155	2
0	11182	12.901318124155	3
0	11191	12.909822124155	2
0	11191	12.909822124155	3
0	11200	12.918326124155	2
0	11200	12.918326124155	3
0	11205	12.926830124155	2
0	11205	12.926830124155	3
0	11214	12.935334124155	2
0	11214	12.935334124155	3
0	11219	12.943838124155	2
0	11226	12.962920944369	3
0	11229	12.971424944369	2
0	11234	12.977134413561	3
0	11238	12.985638413561	2
0	11243	12.995369187513	3
0	11257	13.003873187513	2
0	11257	13.003873187513	3
0	11265	13.012377187513	2
0	11265	13.012377187513	3
0	11270	13.020881187513	2
0	11270	13.020881187513	3
0	11283	13.029385187513	2
0	11283	13.029385187513	3
0	11296	13.037889187513	2
0	11296	13.037889187513	3
0	11301	13.046393187513	2
0	11301	13.046393187513	3
0	11306	13.054897187513	2
0	11306	13.054897187513	3
0	11315	13.063401187513	2
0	11315	13.063401187513	3
0	11332	13.071905187513	2
0	11332	13.071905187513	3
0	11341	13.080409187513	2
0	11341	13.080409187513	3
0	11346	13.088913187513	2
0	11346	13.088913187513	3
0	11355	13.097417187513	2
0	11355	13.097417187513	3
0	11362	13.105921187513	2
0	11362	13.105921187513	3
0	11371	13.114425187513	2
0	11371	13.114425187513	3
0	11380	13.122929187513	2
0	11380	13.122929187513	3
0	11385	13.131433187513	2
0	11391	13.138861118182	3
0	11399	13.147365118182	2
0	11399	13.147365118182	3
0	11407	13.155869118182	2
0	11407	13.155869118182	3
0	11416	13.164373118182	2
0	11416	13.164373118182	3
0	11421	13.172877118182	2
0	11427	13.178012718247	3
0	11431	13.186516718247	2
0	11439	13.21573531325	3
0	11446	13.22423931325	2
0	11446	13.22423931325	3
0	11450	13.23274331325	2
0	11456	13.238560685366	3
0	11460	13.247064685366	2
0	11465	13.251505361915	3
0	11469	13.260009361915	2
0	11474	13.261922166975	3
0	11478	13.270426166975	2
0	11483	13.279815615569	3
0	11487	13.288319615569	2
0	11495	13.314411416605	3
0	11506	13.322915416605	2
0	11506	13.322915416605	3
0	11510	13.331419416605	2
0	11510	13.331419416605	3
0	11523	13.339923416605	2
0	11523	13.339923416605	3
0	11536	13.348427416605	2
0	11536	13.348427416605	3
0	11545	13.356931416605	2
0	11545	13.356931416605	3
0	11558	13.365435416605	2
0	11558	13.365435416605	3
0	11563	13.373939416605	2
0	11563	13.373939416605	3
0	11568	13.382443416605	2
0	11568	13.382443416605	3
0	11577	13.390947416605	2
0	11577	13.390947416605	3
0	11586	13.399451416605	2
0	11586	13.399451416605	3
0	11597	13.407955416605	2
0	11597	13.407955416605	3
0	11606	13.416459416605	2
0	11606	13.416459416605	3
0	11611	13.424963416605	2
0	11611	13.424963416605	3
0	11624	13.433467416605	2
0	11624	13.433467416605	3
0	11641	13.441971416605	2
0	11641	13.441971416605	3
0	11650	13.450475416605	2
0	11650	13.450475416605	3
0	11659	13.458979416605	2
0	11659	13.458979416605	3
0	11664	13.467483416605	2
0	11664	13.467483416605	3
0	11669	13.475987416605	2
0	11669	13.475987416605	3
0	11674	13.484491416605	2
0	11674	13.484491416605	3
0	11683	13.492995416605	2
0	11683	13.492995416605	3
0	11690	13.501499416605	2
0	11697	13.533226336016	3
0	11700	13.541730336016	2
0	11705	13.544841320118	3
0	11709	13.553345320118	2
0	11714	13.556373553877	3
0	11718	13.564877553877	2
0	11726	13.607076756695	3
0	11729	13.615580756695	2
0	11735	13.633271273265	3
0	11738	13.641775273265	2
0	11743	13.650652883016	3
0	11751	13.659156883016	2
0	11751	13.659156883016	3
0	11763	13.667660883016	2
0	11763	13.667660883016	3
0	11772	13.676164883016	2
0	11772	13.676164883016	3
0	11777	13.684668883016	2
0	11777	13.684668883016	3
0	11782	13.693172883016	2
0	11791	13.727050585291	3
0	11794	13.735554585291	2
0	11800	13.75623620859	3
0	11811	13.76474020859	2
0	11811	13.76474020859	3
0	11815	13.77324420859	2
0	11815	13.77324420859	3
0	11820	13.78174820859	2
0	11826	13.785522523534	3
0	11830	13.794026523534	2
0	11835	13.794767272468	3
0	11844	13.803271272468	2
0	11844	13.803271272468	3
0	11853	13.811775272468	2
0	11853	13.811775272468	3
0	11858	13.820279272468	2
0	11864	13.823286801897	3
0	11880	13.831790801897	2
0	11880	13.831790801897	3
0	11896	13.840294801897	2
0	11896	13.840294801897	3
0	11901	13.848798801897	2
0	11901	13.848798801897	3
0	11922	13.857302801897	2
0	11922	13.857302801897	3
0	11935	13.865806801897	2
0	11935	13.865806801897	3
0	11944	13.874310801897	2
0	11944	13.874310801897	3
0	11949	13.882814801897	2
0	11949	13.882814801897	3
0	11958	13.891318801897	2
0	11958	13.891318801897	3
0	11963	13.899822801897	2
0	11963	13.899822801897	3
0	11970	13.908326801897	2
0	11970	13.908326801897	3
0	11975	13.916830801897	2
0	11975	13.916830801897	3
0	11980	13.925334801897	2
0	11980	13.925334801897	3
0	11985	13.933838801897	2
0	11985	13.933838801897	3
0	11990	13.942342801897	2
0	11990	13.942342801897	3
0	11995	13.950846801897	2
0	12001	13.957546300366	3
0	12005	13.966050300366	2
0	12010	13.966708567569	3
0	12013	13.975212567569	2
0	12022	14.001340928684	3
0	12033	14.009844928684	2
0	12033	14.009844928684	3
0	12041	14.018348928684	2
0	12041	14.018348928684	3
0	12050	14.026852928684	2
0	12050	14.026852928684	3
0	12059	14.035356928684	2
0	12059	14.035356928684	3
0	12068	14.043860928684	2
0	12068	14.043860928684	3
0	12077	14.052364928684	2
0	12077	14.052364928684	3
0	12082	14.060868928684	2
0	12082	14.060868928684	3
0	12087	14.069372928684	2
0	12094	14.080527642122	3
0	12097	14.089031642122	2
0	12105	14.106457004647	3
0	12108	14.114961004647	2
0	12113	14.120984043816	3
0	12121	14.129488043816	2
0	12121	14.129488043816	3
0	12133	14.137992043816	2
0	12133	14.137992043816	3
0	12138	14.146496043816	2
0	12138	14.146496043816	3
0	12147	14.155000043816	2
0	12147	14.155000043816	3
0	12160	14.163504043816	2
0	12160	14.163504043816	3
0	12165	14.172008043816	2
0	12165	14.172008043816	3
0	12170	14.180512043816	2
0	12176	14.185406309778	3
0	12180	14.193910309778	2
0	12187	14.200221589292	3
0	12191	14.208725589292	2
0	12196	14.21168435168	3
0	12200	14.22018835168	2
0	12206	14.230555775531	3
0	12209	14.239059775531	2
0	12215	14.252224569703	3
0	12222	14.260728569703	2
0	12222	14.260728569703	3
0	12226	14.269232569703	2
0	12233	14.28571435721	3
0	12236	14.29421835721	2
0	12244	14.315497627723	3
0	12251	14.324001627723	2
0	12251	14.324001627723	3
0	12259	14.332505627723	2
0	12259	14.332505627723	3
0	12268	14.341009627723	2
0	12268	14.341009627723	3
0	12277	14.349513627723	2
0	12277	14.349513627723	3
0	12282	14.358017627723	2
0	12289	14.382064359401	3
0	12296	14.390568359401	2
0	12296	14.390568359401	3
0	12300	14.399072359401	2
0	12309	14.435638559452	3
0	12312	14.444142559452	2
0	12318	14.463528091675	3
0	12325	14.472032091675	2
0	12325	14.472032091675	3
0	12329	14.480536091675	2
0	12336	14.491302967013	3
0	12339	14.499806967013	2
0	12346	14.508889459592	3
0	12350	14.517393459592	2
0	12355	14.522483990711	3
0	12367	14.530987990711	2
0	12367	14.530987990711	3
0	12371	14.539491990711	2
0	12371	14.539491990711	3
0	12380	14.547995990711	2
0	12380	14.547995990711	3
0	12385	14.556499990711	2
0	12391	14.565309320637	3
0	12399	14.573813320637	2
0	12399	14.573813320637	3
0	12407	14.582317320637	2
0	12407	14.582317320637	3
0	12416	14.590821320637	2
0	12416	14.590821320637	3
0	12421	14.599325320637	2
0	12430	14.612282846848	3
0	12437	14.620786846848	2
0	12437	14.620786846848	3
0	12445	14.629290846848	2
0	12445	14.629290846848	3
0	12458	14.637794846848	2
0	12458	14.637794846848	3
0	12463	14.646298846848	2
0	12463	14.646298846848	3
0	12472	14.654802846848	2
0	12472	14.654802846848	3
0	12477	14.663306846848	2
0	12483	14.671415936998	3
0	12499	14.679919936998	2
0	12499	14.679919936998	3
0	12503	14.688423936998	2
0	12503	14.688423936998	3
0	12508	14.696927936998	2
0	12508	14.696927936998	3
0	12515	14.705431936998	2
0	12521	14.71436271273	3
0	12525	14.72286671273	2
0	12530	14.727564151455	3
0	12534	14.736068151455	2
0	12540	14.767521981513	3
0	12543	14.776025981513	2
0	12548	14.776620465158	3
0	12551	14.785124465158	2
0	12558	14.796058477646	3
0	12567	14.804562477646	2
0	12567	14.804562477646	3
0	12579	14.813066477646	2
0	12579	14.813066477646	3
0	12584	14.821570477646	2
0	12584	14.821570477646	3
0	12593	14.830074477646	2
0	12593	14.830074477646	3
0	12602	14.838578477646	2
0	12602	14.838578477646	3
0	12607	14.847082477646	2
0	12614	14.85852122355	3
0	12617	14.86702522355	2
0	12625	14.907611337412	3
0	12648	14.916115337412	2
0	12648	14.916115337412	3
0	12656	14.924619337412	2
0	12656	14.924619337412	3
0	12661	14.933123337412	2
0	12661	14.933123337412	3
0	12666	14.941627337412	2
0	12666	14.941627337412	3
0	12679	14.950131337412	2
0	12679	14.950131337412	3
0	12688	14.958635337412	2
0	12688	14.958635337412	3
0	12693	14.967139337412	2
0	12693	14.967139337412	3
0	12698	14.975643337412	2
0	12698	14.975643337412	3
0	12703	14.984147337412	2
0	12703	14.984147337412	3
0	12712	14.992651337412	2
0	12712	14.992651337412	3
0	12723	15.001155337412	2
0	12723	15.001155337412	3
0	12728	15.009659337412	2
0	12735	15.0199162024	3
0	12738	15.0284202024	2
0	12743	15.029524829792	3
0	12746	15.038028829792	2
0	12753	15.076752298781	3
0	12756	15.085256298781	2
0	12761	15.087412383437	3
0	12773	15.095916383437	2
0	12773	15.095916383437	3
0	12783	15.104420383437	2
0	12783	15.104420383437	3
0	12792	15.112924383437	2
0	12792	15.112924383437	3
0	12797	15.121428383437	2
0	12797	15.121428383437	3
0	12806	15.129932383437	2
0	12806	15.129932383437	3
0	12815	15.138436383437	2
0	12815	15.138436383437	3
0	12824	15.146940383437	2
0	12824	15.146940383437	3
0	12829	15.155444383437	2
0	12836	15.165587487796	3
0	12843	15.174091487796	2
0	12843	15.174091487796	3
0	12847	15.182595487796	2
0	12856	15.216681401401	3
0	12859	15.225185401401	2
0	12864	15.229267495351	3
0	12868	15.237771495351	2
0	12874	15.254810881304	3
0	12877	15.263314881304	2
0	12882	15.26455236601	3
0	12885	15.27305636601	2
0	12891	15.280791468479	3
0	12895	15.289295468479	2
0	12900	15.298455999828	3
0	12906	15.306959999828	2
0	12912	15.327120041371	3
0	12919	15.335624041371	2
0	12919	15.335624041371	3
0	12927	15.344128041371	2
0	12927	15.344128041371	3
0	12936	15.352632041371	2
0	12936	15.352632041371	3
0	12941	15.361136041371	2
0	12948	15.376383794893	3
0	12955	15.384887794893	2
0	12955	15.384887794893	3
0	12959	15.393391794893	2
0	12968	15.426313667392	3
0	12971	15.434817667392	2
0	12977	15.451310371093	3
0	12984	15.459814371093	2
0	12984	15.459814371093	3
0	12992	15.468318371093	2
0	12992	15.468318371093	3
0	13001	15.476822371093	2
0	13001	15.476822371093	3
0	13006	15.485326371093	2
0	13012	15.491584907976	3
0	13018	15.500088907976	2
0	13024	15.520021679507	3
0	13027	15.528525679507	2
0	13033	15.539326863278	3
0	13040	15.547830863278	2
0	13040	15.547830863278	3
0	13048	15.556334863278	2
0	13048	15.556334863278	3
0	13053	15.564838863278	2
0	13059	15.566595396386	3
0	13071	15.575099396386	2
0	13071	15.575099396386	3
0	13083	15.583603396386	2
0	13083	15.583603396386	3
0	13088	15.592107396386	2
0	13088	15.592107396386	3
0	13095	15.600611396386	2
0	13095	15.600611396386	3
0	13104	15.609115396386	2
0	13104	15.609115396386	3
0	13113	15.617619396386	2
0	13113	15.617619396386	3
0	13122	15.626123396386	2
0	13122	15.626123396386	3
0	13127	15.634627396386	2
0	13134	15.645315346559	3
0	13137	15.653819346559	2
0	13143	15.664924937234	3
0	13146	15.673428937234	2
0	13154	15.74184423994	3
0	13157	15.75034823994	2
0	13163	15.764396204928	3
0	13174	15.772900204928	2
0	13174	15.772900204928	3
0	13178	15.781404204928	2
0	13178	15.781404204928	3
0	13183	15.789908204928	2
0	13189	15.794494621584	3
0	13203	15.802998621584	2
0	13203	15.802998621584	3
0	13207	15.811502621584	2
0	13207	15.811502621584	3
0	13212	15.820006621584	2
0	13219	15.830677945268	3
0	13222	15.839181945268	2
0	13228	15.869536630124	3
0	13231	15.878040630124	2
0	13236	15.881815279557	3
0	13240	15.890319279557	2
0	13245	15.895817265891	3
0	13255	15.904321265891	2
0	13255	15.904321265891	3
0	13263	15.912825265891	2
0	13263	15.912825265891	3
0	13280	15.921329265891	2
0	13280	15.921329265891	3
0	13293	15.929833265891	2
0	13293	15.929833265891	3
0	13302	15.938337265891	2
0	13302	15.938337265891	3
0	13311	15.946841265891	2
0	13311	15.946841265891	3
0	13316	15.955345265891	2
0	13316	15.955345265891	3
0	13325	15.963849265891	2
0	13325	15.963849265891	3
0	13346	15.972353265891	2
0	13346	15.972353265891	3
0	13355	15.980857265891	2
0	13355	15.980857265891	3
0	13360	15.989361265891	2
0	13360	15.989361265891	3
0	13369	15.997865265891	2
0	13369	15.997865265891	3
0	13380	16.006369265891	2
0	13380	16.006369265891	3
0	13385	16.014873265891	2
0	13385	16.014873265891	3
0	13394	16.023377265891	2
0	13394	16.023377265891	3
0	13399	16.031881265891	2
0	13399	16.031881265891	3
0	13408	16.040385265891	2
0	13408	16.040385265891	3
0	13413	16.048889265891	2
0	13413	16.048889265891	3
0	13418	16.057393265891	2
0	13418	16.057393265891	3
0	13427	16.065897265891	2
0	13427	16.065897265891	3
0	13432	16.074401265891	2
0	13438	16.077284300853	3
0	13442	16.085788300853	2
0	13450	16.123649335529	3
0	13453	16.132153335529	2
0	13459	16.151140204192	3
0	13462	16.159644204192	2
0	13467	16.161743681314	3
0	13471	16.170247681314	2
0	13476	16.17238905775	3
0	13484	16.18089305775	2
0	13484	16.18089305775	3
0	13488	16.18939705775	2
0	13497	16.251049461047	3
0	13504	16.259553461047	2
0	13504	16.259553461047	3
0	13508	16.268057461047	2
0	13513	16.268923282487	3
0	13517	16.277427282487	2
0	13524	16.289568735272	3
0	13535	16.298072735272	2
0	13535	16.298072735272	3
0	13545	16.306576735272	2
0	13545	16.306576735272	3
0	13550	16.315080735272	2
0	13550	16.315080735272	3
0	13563	16.323584735272	2
0	13563	16.323584735272	3
0	13568	16.332088735272	2
0	13568	16.332088735272	3
0	13577	16.340592735272	2
0	13577	16.340592735272	3
0	13582	16.349096735272	2
0	13589	16.367499030431	3
0	13596	16.376003030431	2
0	13596	16.376003030431	3
0	13600	16.384507030431	2
0	13607	16.399586158969	3
0	13616	16.408090158969	2
0	13616	16.408090158969	3
0	13624	16.416594158969	2
0	13624	16.416594158969	3
0	13629	16.425098158969	2
0	13636	16.444711173004	3
0	13639	16.453215173004	2
0	13647	16.500781894709	3
0	13654	16.509285894709	2
0	13654	16.509285894709	3
0	13666	16.517789894709	2
0	13666	16.517789894709	3
0	13671	16.526293894709	2
0	13671	16.526293894709	3
0	13680	16.534797894709	2
0	13680	16.534797894709	3
0	13685	16.543301894709	2
0	13691	16.551333454345	3
0	13695	16.559837454345	2
0	13700	16.565176558027	3
0	13708	16.573680558027	2
0	13708	16.573680558027	3
0	13716	16.582184558027	2
0	13716	16.582184558027	3
0	13725	16.590688558027	2
0	13725	16.590688558027	3
0	13734	16.599192558027	2
0	13734	16.599192558027	3
0	13741	16.607696558027	2
0	13748	16.619738966023	3
0	13751	16.628242966023	2
0	13757	16.651491056691	3
0	13776	16.659995056691	2
0	13776	16.659995056691	3
0	13784	16.668499056691	2
0	13784	16.668499056691	3
0	13793	16.677003056691	2
0	13793	16.677003056691	3
0	13802	16.685507056691	2
0	13802	16.685507056691	3
0	13807	16.694011056691	2
0	13807	16.694011056691	3
0	13818	16.702515056691	2
0	13818	16.702515056691	3
0	13823	16.711019056691	2
0	13823	16.711019056691	3
0	13828	16.719523056691	2
0	13828	16.719523056691	3
0	13837	16.728027056691	2
0	13837	16.728027056691	3
0	13842	16.736531056691	2
0	13849	16.780581315458	3
0	13852	16.789085315458	2
0	13857	16.793628274287	3
0	13863	16.802132274287	2
0	13869	16.816028490342	3
0	13872	16.824532490342	2
0	13877	16.834091525118	3
0	13885	16.842595525118	2
0	13885	16.842595525118	3
0	13889	16.851099525118	2
0	13896	16.86352138596	3
0	13911	16.87202538596	2
0	13911	16.87202538596	3
0	13919	16.88052938596	2
0	13919	16.88052938596	3
0	13932	16.88903338596	2
0	13932	16.88903338596	3
0	13937	16.89753738596	2
0	13937	16.89753738596	3
0	13948	16.90604138596	2
0	13948	16.90604138596	3
0	13953	16.91454538596	2
0	13953	16.91454538596	3
0	13962	16.92304938596	2
0	13962	16.92304938596	3
0	13975	16.93155338596	2
0	13975	16.93155338596	3
0	13984	16.94005738596	2
0	13984	16.94005738596	3
0	13993	16.94856138596	2
0	13993	16.94856138596	3
0	13998	16.95706538596	2
0	13998	16.95706538596	3
0	14003	16.96556938596	2
0	14003	16.96556938596	3
0	14012	16.97407338596	2
0	14012	16.97407338596	3
0	14017	16.98257738596	2
0	14026	17.004662977576	3
0	14029	17.013166977576	2
0	14035	17.023913586126	3
0	14042	17.032417586126	2
0	14042	17.032417586126	3
0	14046	17.040921586126	2
0	14052	17.044501117649	3
0	14068	17.053005117649	2
0	14068	17.053005117649	3
0	14076	17.061509117649	2
0	14076	17.061509117649	3
0	14085	17.070013117649	2
0	14085	17.070013117649	3
0	14094	17.078517117649	2
0	14094	17.078517117649	3
0	14103	17.087021117649	2
0	14103	17.087021117649	3
0	14108	17.095525117649	2
0	14108	17.095525117649	3
0	14115	17.104029117649	2
0	14115	17.104029117649	3
0	14120	17.112533117649	2
0	14126	17.121736759647	3
0	14134	17.130240759647	2
0	14134	17.130240759647	3
0	14138	17.138744759647	2
0	14144	17.14231806216	3
0	14148	17.15082206216	2
0	14154	17.166817540132	3
0	14157	17.175321540132	2
0	14162	17.176725787991	3
0	14169	17.185229787991	2
0	14169	17.185229787991	3
0	14174	17.193733787991	2
0	14179	17.194917934019	3
0	14189	17.203421934019	2
0	14189	17.203421934019	3
0	14198	17.211925934019	2
0	14198	17.211925934019	3
0	14207	17.220429934019	2
0	14207	17.220429934019	3
0	14216	17.228933934019	2
0	14216	17.228933934019	3
0	14221	17.237437934019	2
0	14226	17.238235455585	3
0	14238	17.246739455585	2
0	14238	17.246739455585	3
0	14243	17.255243455585	2
0	14243	17.255243455585	3
0	14248	17.263747455585	2
0	14253	17.264452607952	3
0	14257	17.272956607952	2
0	14263	17.282145060974	3
0	14271	17.290649060974	2
0	14271	17.290649060974	3
0	14279	17.299153060974	2
0	14279	17.299153060974	3
0	14286	17.307657060974	2
0	14293	17.323043630507	3
0	14296	17.331547630507	2
0	14302	17.343493706618	3
0	14305	17.351997706618	2
0	14310	17.354927492074	3
0	14322	17.363431492074	2
0	14322	17.363431492074	3
0	14330	17.371935492074	2
0	14330	17.371935492074	3
0	14339	17.380439492074	2
0	14339	17.380439492074	3
0	14344	17.388943492074	2
0	14344	17.388943492074	3
0	14349	17.397447492074	2
0	14355	17.39980361073	3
0	14361	17.40830761073	2
0	14367	17.422786122789	3
0	14378	17.431290122789	2
0	14378	17.431290122789	3
0	14390	17.439794122789	2
0	14390	17.439794122789	3
0	14395	17.448298122789	2
0	14395	17.448298122789	3
0	14404	17.456802122789	2
0	14404	17.456802122789	3
0	14409	17.465306122789	2
0	14409	17.465306122789	3
0	14418	17.473810122789	2
0	14418	17.473810122789	3
0	14427	17.482314122789	2
0	14427	17.482314122789	3
0	14432	17.490818122789	2
0	14441	17.528593869595	3
0	14448	17.537097869595	2
0	14448	17.537097869595	3
0	14452	17.545601869595	2
0	14459	17.558049807642	3
0	14470	17.566553807642	2
0	14470	17.566553807642	3
0	14474	17.575057807642	2
0	14474	17.575057807642	3
0	14487	17.583561807642	2
0	14487	17.583561807642	3
0	14496	17.592065807642	2
0	14496	17.592065807642	3
0	14507	17.600569807642	2
0	14507	17.600569807642	3
0	14512	17.609073807642	2
0	14512	17.609073807642	3
0	14521	17.617577807642	2
0	14521	17.617577807642	3
0	14526	17.626081807642	2
0	14533	17.637273945345	3
0	14536	17.645777945345	2
0	14541	17.65490335511	3
0	14545	17.66340735511	2
0	14551	17.677644010599	3
0	14562	17.686148010599	2
0	14562	17.686148010599	3
0	14570	17.694652010599	2
0	14570	17.694652010599	3
0	14585	17.703156010599	2
0	14585	17.703156010599	3
0	14594	17.711660010599	2
0	14594	17.711660010599	3
0	14599	17.720164010599	2
0	14599	17.720164010599	3
0	14604	17.728668010599	2
0	14604	17.728668010599	3
0	14609	17.737172010599	2
0	14615	17.740120733839	3
0	14623	17.748624733839	2
0	14623	17.748624733839	3
0	14635	17.757128733839	2
0	14635	17.757128733839	3
0	14640	17.765632733839	2
0	14640	17.765632733839	3
0	14653	17.774136733839	2
0	14653	17.774136733839	3
0	14666	17.782640733839	2
0	14666	17.782640733839	3
0	14671	17.791144733839	2
0	14671	17.791144733839	3
0	14676	17.799648733839	2
0	14676	17.799648733839	3
0	14687	17.808152733839	2
0	14687	17.808152733839	3
0	14696	17.816656733839	2
0	14696	17.816656733839	3
0	14701	17.825160733839	2
0	14707	17.828116413105	3
0	14711	17.836620413105	2
0	14717	17.847922616195	3
0	14720	17.856426616195	2
0	14726	17.879333547641	3
0	14737	17.887837547641	2
0	14737	17.887837547641	3
0	14741	17.896341547641	2
0	14741	17.896341547641	3
0	14756	17.904845547641	2
0	14756	17.904845547641	3
0	14773	17.913349547641	2
0	14773	17.913349547641	3
0	14786	17.921853547641	2
0	14786	17.921853547641	3
0	14795	17.930357547641	2
0	14795	17.930357547641	3
0	14812	17.938861547641	2
0	14812	17.938861547641	3
0	14825	17.947365547641	2
0	14825	17.947365547641	3
0	14830	17.955869547641	2
0	14830	17.955869547641	3
0	14835	17.964373547641	2
0	14835	17.964373547641	3
0	14844	17.972877547641	2
0	14844	17.972877547641	3
0	14849	17.981381547641	2
0	14849	17.981381547641	3
0	14862	17.989885547641	2
0	14862	17.989885547641	3
0	14867	17.998389547641	2
0	14867	17.998389547641	3
0	14878	18.006893547641	2
0	14878	18.006893547641	3
0	14883	18.015397547641	2
0	14883	18.015397547641	3
0	14892	18.023901547641	2
0	14892	18.023901547641	3
0	14901	18.032405547641	2
0	14901	18.032405547641	3
0	14906	18.040909547641	2
0	14906	18.040909547641	3
0	14915	18.049413547641	2
0	14915	18.049413547641	3
0	14920	18.057917547641	2
0	14920	18.057917547641	3
0	14925	18.066421547641	2
0	14925	18.066421547641	3
0	14934	18.074925547641	2
0	14934	18.074925547641	3
0	14939	18.083429547641	2
0	14945	18.089143591139	3
0	14965	18.097647591139	2
0	14965	18.097647591139	3
0	14971	18.106151591139	2
0	14971	18.106151591139	3
0	14984	18.114655591139	2
0	14984	18.114655591139	3
0	14989	18.123159591139	2
0	14989	18.123159591139	3
0	14998	18.131663591139	2
0	14998	18.131663591139	3
0	15011	18.140167591139	2
0	15011	18.140167591139	3
0	15020	18.148671591139	2
0	15020	18.148671591139	3
0	15025	18.157175591139	2
0	15025	18.157175591139	3
0	15030	18.165679591139	2
0	15030	18.165679591139	3
0	15039	18.174183591139	2
0	15039	18.174183591139	3
0	15044	18.182687591139	2
0	15044	18.182687591139	3
0	15049	18.191191591139	2
0	15058	18.204665175692	3
0	15065	18.213169175692	2
0	15065	18.213169175692	3
0	15069	18.221673175692	2
0	15075	18.226096691672	3
0	15083	18.234600691672	2
0	15083	18.234600691672	3
0	15087	18.243104691672	2
0	15094	18.256106782011	3
0	15101	18.264610782011	2
0	15101	18.264610782011	3
0	15113	18.273114782011	2
0	15113	18.273114782011	3
0	15118	18.281618782011	2
0	15118	18.281618782011	3
0	15123	18.290122782011	2
0	15132	18.316238847499	3
0	15135	18.324742847499	2
0	15140	18.33071188156	3
0	15144	18.33921588156	2
0	15150	18.352839817889	3
0	15153	18.361343817889	2
0	15158	18.362874868217	3
0	15166	18.371378868217	2
0	15166	18.371378868217	3
0	15170	18.379882868217	2
0	15176	18.382318997223	3
0	15180	18.390822997223	2
0	15185	18.391347179573	3
0	15192	18.399851179573	2
0	15192	18.399851179573	3
0	15199	18.408355179573	2
0	15205	18.416049728203	3
0	15217	18.424553728203	2
0	15217	18.424553728203	3
0	15233	18.433057728203	2
0	15233	18.433057728203	3
0	15238	18.441561728203	2
0	15238	18.441561728203	3
0	15243	18.450065728203	2
0	15243	18.450065728203	3
0	15252	18.458569728203	2
0	15252	18.458569728203	3
0	15257	18.467073728203	2
0	15257	18.467073728203	3
0	15266	18.475577728203	2
0	15266	18.475577728203	3
0	15275	18.484081728203	2
0	15275	18.484081728203	3
0	15280	18.492585728203	2
0	15289	18.529025221874	3
0	15296	18.537529221874	2
0	15296	18.537529221874	3
0	15300	18.546033221874	2
0	15305	18.547393248431	3
0	15313	18.555897248431	2
0	15313	18.555897248431	3
0	15326	18.564401248431	2
0	15326	18.564401248431	3
0	15331	18.572905248431	2
0	15331	18.572905248431	3
0	15344	18.581409248431	2
0	15344	18.581409248431	3
0	15349	18.589913248431	2
0	15349	18.589913248431	3
0	15354	18.598417248431	2
0	15362	18.602132819477	3
0	15366	18.610636819477	2
0	15371	18.615134346695	3
0	15379	18.623638346695	2
0	15379	18.623638346695	3
0	15383	18.632142346695	2
0	15389	18.635855328275	3
0	15393	18.644359328275	2
0	15398	18.64771378779	3
0	15402	18.65621778779	2
0	15408	18.675958094917	3
0	15411	18.684462094917	2
0	15416	18.692532453926	3
0	15422	18.701036453926	2
0	15427	18.702414830418	3
0	15430	18.710918830418	2
0	15437	18.724149600832	3
0	15444	18.732653600832	2
0	15444	18.732653600832	3
0	15452	18.741157600832	2
0	15452	18.741157600832	3
0	15461	18.749661600832	2
0	15461	18.749661600832	3
0	15466	18.758165600832	2
0	15473	18.783112527068	3
0	15488	18.791616527068	2
0	15488	18.791616527068	3
0	15502	18.800120527068	2
0	15502	18.800120527068	3
0	15507	18.808624527068	2
0	15507	18.808624527068	3
0	15516	18.817128527068	2
0	15516	18.817128527068	3
0	15521	18.825632527068	2
0	15521	18.825632527068	3
0	15526	18.834136527068	2
0	15526	18.834136527068	3
0	15535	18.842640527068	2
0	15535	18.842640527068	3
0	15544	18.851144527068	2
0	15544	18.851144527068	3
0	15549	18.859648527068	2
0	15554	18.860894776257	3
0	15558	18.869398776257	2
0	15565	18.898367137315	3
0	15570	18.906871137315	2
0	15576	18.936488241408	3
0	15579	18.944992241408	2
0	15585	18.957353678756	3
0	15588	18.965857678756	2
0	15593	18.968583699876	3
0	15605	18.977087699876	2
0	15605	18.977087699876	3
0	15609	18.985591699876	2
0	15609	18.985591699876	3
0	15618	18.994095699876	2
0	15618	18.994095699876	3
0	15625	19.002599699876	2
[...]
19	2964	2.980989431307	244
19	2999	3.022666920986	247
19	3012	3.040145643639	248
19	3030	3.059244317239	249
19	3042	3.067748317295	250
19	3050	3.076252317351	251
19	3105	3.183230207663	255
19	3121	3.191734207721	256
19	3156	3.217246207897	259
19	3201	3.242758208074	262
19	3216	3.259766208193	264
19	3225	3.268270208253	265
19	3242	3.276774208312	266
19	3255	3.285278208372	267
19	3264	3.293782208433	268
19	3279	3.302286208493	269
19	3296	3.310790208553	270
19	3309	3.319294208614	271
19	3368	3.353310208858	275
19	3387	3.37031820898	277
19	3406	3.387326209104	279
19	3423	3.395830209166	280
19	3434	3.404334209228	281
19	3457	3.421342209352	283
19	3466	3.429846209415	284
19	3475	3.438350209478	285
19	3498	3.455358209603	287
19	3525	3.47236620973	289
19	3574	3.506382209985	293
19	3583	3.514886210049	294
19	3596	3.523390210113	295
19	3619	3.540398210242	297
19	3628	3.548902210306	298
19	3651	3.565910210436	300
19	3670	3.582918210567	302
19	3701	3.599926210697	304
19	3726	3.616934210829	306
19	3735	3.625438210895	307
19	3748	3.633942210961	308
19	3775	3.650950211094	310
19	3790	3.667958211227	312
19	3809	3.684966211361	314
19	3836	3.734459405519	317
19	3881	3.766283564288	320
19	3896	3.783291564425	322
19	3904	3.791795564494	323
19	3924	3.800485813121	324
19	3937	3.80898981319	325
19	3964	3.825997813329	327
19	3973	3.834501813399	328
19	3981	3.843005813468	329
19	4000	3.873591975228	330
19	4012	3.882095975299	331
19	4020	3.890599975369	332
19	4036	3.913540670917	333
19	4064	3.956280368959	335
19	4071	3.964784369031	336
19	4085	3.98630607244	337
19	4105	4.01271002451	338
19	4133	4.045707246122	341
19	4151	4.072510924567	342
19	4169	4.091061149839	344
19	4183	4.100475830284	345
19	4197	4.123756409008	346
19	4224	4.147128847303	348
19	4237	4.155632847378	349
19	4258	4.164136847454	350
19	4267	4.17264084753	351
19	4288	4.181144847605	352
19	4311	4.198152847758	354
19	4322	4.206656847834	355
19	4331	4.21516084791	356
19	4345	4.232168848064	358
19	4358	4.241116533393	359
19	4404	4.356915352295	363
19	4427	4.388241134708	365
19	4439	4.397623747873	366
19	4454	4.406430187559	367
19	4473	4.426150426567	368
19	4520	4.478790232611	373
19	4534	4.497424977508	374
19	4563	4.536595190485	376
19	4591	4.584749242539	378
19	4603	4.593253242622	379
19	4622	4.601757242705	380
19	4631	4.610261242789	381
19	4640	4.618765242872	382
19	4653	4.627269242956	383
19	4666	4.635773243039	384
19	4674	4.644277243123	385
19	4702	4.663451560324	387
19	4710	4.671955560408	388
19	4724	4.69550279371	389
19	4738	4.704250874454	390
19	4766	4.741351694104	392
19	4787	4.74985569419	393
19	4800	4.758359694276	394
19	4813	4.766863694362	395
19	4828	4.783871694535	397
19	4836	4.792375694621	398
19	4861	4.823183732116	400
19	4880	4.848559000021	401
19	4902	4.866784190568	403
19	4910	4.875288190656	404
19	4931	4.905194191235	405
19	4938	4.913698191323	406
19	4951	4.922758083191	407
19	4984	4.946328343971	409
19	4992	4.954832344061	410
19	5037	5.023762011713	414
19	5069	5.04629918406	416
19	5091	5.063307184242	418
19	5134	5.097323184608	422
19	5161	5.122835184884	425
19	5189	5.179294792203	428
19	5249	5.244015623495	433
19	5257	5.252519623589	434
19	5276	5.28534153504	435
19	5295	5.30234953523	437
19	5309	5.347795649172	438
19	5327	5.371145064443	439
19	5339	5.37964906454	440
19	5362	5.396657064733	442
19	5388	5.41746472659	444
19	5400	5.425968726687	445
19	5429	5.472802657324	448
19	5447	5.488353191302	449
19	5472	5.514414472011	451
19	5479	5.52291847211	452
19	5559	5.62380513273	459
19	5578	5.662972266668	461
19	5607	5.729527316855	463
19	5620	5.738031316957	464
19	5633	5.74653531706	465
19	5654	5.755039317163	466
19	5667	5.763543317265	467
19	5680	5.772047317369	468
19	5689	5.780551317472	469
19	5734	5.814567317886	473
19	5743	5.82307131799	474
19	5774	5.840079318198	476
19	5783	5.848583318303	477
19	5792	5.857087318407	478
19	5843	5.961367173198	483
19	5861	5.971768066176	484
19	5873	5.980272066283	485
19	5886	5.988776066389	486
19	5899	5.997280066496	487
19	5924	6.01428806671	489
19	5947	6.031296066925	491
19	5998	6.10721382954	496
19	6011	6.147928998638	497
19	6024	6.167404879094	498
19	6041	6.176973660927	499
19	6075	6.21652260216	501
19	6083	6.22502660227	502
19	6113	6.270870630327	505
19	6120	6.279374630438	506
19	6146	6.307414176505	508
19	6186	6.411111259833	511
19	6208	6.42811926006	513
19	6216	6.436623260174	514
19	6252	6.464965667575	516
19	6269	6.47346966769	517
19	6288	6.49047766792	519
19	6297	6.498981668035	520
19	6316	6.50748566815	521
19	6329	6.515989668265	522
19	6342	6.524493668381	523
19	6371	6.550005668728	526
19	6380	6.558509668844	527
19	6399	6.581338138603	529
19	6428	6.603286447897	531
19	6461	6.628798448248	534
19	6469	6.637302448366	535
19	6504	6.704892735923	538
19	6531	6.715231105829	539
19	6553	6.732239106066	541
19	6566	6.740743106185	542
19	6579	6.749247106304	543
19	6600	6.757751106424	544
19	6609	6.766255106543	545
19	6634	6.791767106902	548
19	6645	6.800271107022	549
19	6698	6.847342605723	554
19	6706	6.855846605844	555
19	6725	6.884737465252	556
19	6732	6.893241465374	557
19	6757	6.903961677695	558
19	6765	6.912465677817	559
19	6838	6.987692454082	566
19	6864	7.019236709884	568
19	6896	7.044748710255	571
19	6943	7.090622959601	575
19	6964	7.10763095985	577
19	6977	7.116134959975	578
19	6990	7.1246389601	579
19	6998	7.133142960226	580
19	7012	7.147408462146	581
19	7047	7.201390372002	584
19	7060	7.216993841939	585
19	7072	7.225823361994	586
19	7086	7.243948220089	587
19	7109	7.27547511904	589
19	7124	7.300779129204	590
19	7146	7.324893232967	591
19	7158	7.333397233095	592
19	7187	7.358909233481	595
19	7210	7.375917233739	597
19	7218	7.384421233868	598
19	7253	7.412612279303	601
19	7276	7.43966843223	602
19	7288	7.44817243236	603
19	7301	7.45667643249	604
19	7310	7.465180432621	605
19	7318	7.473684432751	606
19	7334	7.51213649361	607
19	7361	7.536327990603	609
19	7374	7.544831990735	610
19	7387	7.553335990867	611
19	7395	7.561839990999	612
19	7423	7.579933529242	614
19	7431	7.588437529374	615
19	7462	7.617501349879	617
19	7484	7.634509350145	619
19	7497	7.643013350278	620
19	7505	7.651517350411	621
19	7528	7.669153204674	622
19	7536	7.677657204808	623
19	7563	7.696103525368	625
19	7594	7.721615525771	628
19	7628	7.752634302545	631
19	7648	7.801313877203	633
19	7723	7.862565686313	639
19	7732	7.87106968645	640
19	7746	7.888077686723	642
19	7771	7.914569362491	644
20	57	0.076573037754	1051
20	79	0.093581037757	1051
20	103	0.102085037759	1051
20	109	0.110589037761	1051
20	119	0.119093037763	1051
20	125	0.127597037765	1051
20	192	0.196618582513	1051
20	221	0.214722525924	1051
20	252	0.231730525932	1051
20	275	0.24873852594	1051
20	303	0.274250525954	1051
20	317	0.282754525959	1051
20	323	0.291258525964	1051
20	328	0.29976252597	1051
20	350	0.330209738827	1051
20	367	0.338713738833	1051
20	373	0.347217738839	1051
20	480	0.415249738895	1051
20	494	0.423753738902	1051
20	508	0.43225773891	1051
20	532	0.457769738934	1051
20	547	0.474777738951	1051
20	611	0.517297738996	1051
20	660	0.566626450936	1051
20	711	0.618204190583	1051
20	716	0.626708190595	1051
20	792	0.687791122831	1051
20	830	0.758623237827	1051
20	853	0.781606233074	1051
20	870	0.81823361302	1051
20	888	0.871506244848	1051
20	926	0.920602285372	1051
20	936	0.946220250824	1051
20	958	0.965378587788	1051
20	1022	1.037794357189	1051
20	1076	1.091640229241	1051
20	1083	1.100144229261	1051
20	1132	1.153851251029	1051
20	1165	1.193519999577	1051
20	1215	1.227535999666	1051
20	1221	1.236039999689	1051
20	1226	1.244543999712	1051
20	1255	1.264256544153	1051
20	1284	1.313260147783	1051
20	1310	1.338772147856	1051
20	1321	1.349119253038	1051
20	1393	1.417750594268	1051
20	1399	1.426254594294	1051
20	1485	1.548515621489	1051
20	1531	1.60777137662	1051
20	1541	1.61627537665	1051
20	1590	1.65029137677	1051
20	1630	1.684307376893	1051
20	1655	1.709260826313	1051
20	1666	1.722135861695	1051
20	1681	1.737186300992	1051
20	1703	1.754194301056	1051
20	1739	1.780494800487	1051
20	1773	1.821974751409	1051
20	1783	1.841171384787	1051
20	1806	1.868797436107	1051
20	1816	1.887453391437	1051
20	1872	1.960525995707	1051
20	1898	1.977533995779	1051
20	1932	2.003045995889	1051
20	1946	2.011549995926	1051
20	1982	2.037061996037	1051
20	2001	2.054069996112	1051
20	2033	2.099048606323	1051
20	2079	2.125697307597	1051
20	2089	2.134201307636	1051
20	2095	2.142705307675	1051
20	2135	2.168217307794	1051
20	2141	2.176721307834	1051
20	2146	2.185225307874	1051
20	2184	2.23844964716	1051
20	2208	2.286737901989	1051
20	2232	2.310036467661	1051
20	2256	2.328374727774	1051
20	2270	2.34538272786	1051
20	2307	2.395914710848	1051
20	2352	2.429930711025	1051
20	2378	2.510762244781	1051
20	2478	2.589794934591	1051
20	2521	2.623810934783	1051
20	2531	2.632314934831	1051
20	2660	2.717354935321	1051
20	2670	2.725858935371	1051
20	2769	2.82989371204	1051
20	2783	2.838672256163	1051
20	2832	2.874090832242	1051
20	2895	2.908106832454	1051
20	2923	2.933618832615	1051
20	2950	2.959130832776	1051
20	2974	2.995421996806	1051
20	2986	3.010537690951	1051
20	3061	3.094225465262	1051
20	3073	3.130632776375	1051
20	3083	3.154488049994	1051
20	3133	3.20023820778	1051
20	3139	3.208742207838	1051
20	3174	3.225750207956	1051
20	3184	3.234254208015	1051
20	3207	3.251262208134	1051
20	3327	3.327798208674	1051
20	3341	3.336302208735	1051
20	3355	3.344806208796	1051
20	3374	3.361814208919	1051
20	3397	3.378822209042	1051
20	3444	3.41283820929	1051
20	3489	3.44685420954	1051
20	3508	3.463862209667	1051
20	3539	3.480870209793	1051
20	3553	3.489374209857	1051
20	3563	3.497878209921	1051
20	3610	3.531894210177	1051
20	3634	3.557406210371	1051
20	3657	3.574414210501	1051
20	3684	3.591422210632	1051
20	3717	3.608430210763	1051
20	3762	3.642446211028	1051
20	3781	3.659454211161	1051
20	3796	3.676462211294	1051
20	3815	3.693470211429	1051
20	3822	3.701974211496	1051
20	3855	3.749275564151	1051
20	3864	3.757779564219	1051
20	3887	3.774787564356	1051
20	3947	3.817493813259	1051
20	4046	3.925331011129	1051
20	4109	4.021214024583	1051
20	4120	4.034020702923	1051
20	4155	4.081014924641	1051
20	4216	4.138624847228	1051
20	4298	4.189648847681	1051
20	4337	4.223664847987	1051
20	4369	4.284058554494	1051
20	4381	4.323546340819	1051
20	4391	4.336751963307	1051
20	4414	4.369465255925	1051
20	4482	4.434654426647	1051
20	4487	4.443158426728	1051
20	4503	4.461782232449	1051
20	4512	4.47028623253	1051
20	4551	4.528091190403	1051
20	4568	4.545099190567	1051
20	4690	4.65494756024	1051
20	4754	4.732847694019	1051
20	4819	4.775367694448	1051
20	4854	4.814679732029	1051
20	4884	4.857063000108	1051
20	4962	4.935599073201	1051
20	4997	4.96333634415	1051
20	5010	5.003078503994	1051
20	5025	5.015258011623	1051
20	5042	5.032266011804	1051
20	5082	5.054803184151	1051
20	5097	5.071811184333	1051
20	5115	5.080315184425	1051
20	5121	5.088819184516	1051
20	5142	5.1058271847	1051
20	5152	5.114331184792	1051
20	5166	5.131339184976	1051
20	5182	5.17079079211	1051
20	5200	5.191020536272	1051
20	5217	5.218503623213	1051
20	5234	5.227007623307	1051
20	5240	5.235511623401	1051
20	5285	5.293845535135	1051
20	5353	5.388153064636	1051
20	5369	5.40516106483	1051
20	5405	5.434472726784	1051
20	5415	5.443362986887	1051
20	5451	5.4968571914	1051
20	5495	5.533393860044	1051
20	5504	5.541897860143	1051
20	5509	5.550401860242	1051
20	5520	5.563176290506	1051
20	5532	5.601548196046	1051
20	5547	5.615301132629	1051
20	5564	5.632309132831	1051
20	5595	5.721023316752	1051
20	5699	5.789055317575	1051
20	5705	5.797559317679	1051
20	5717	5.806063317782	1051
20	5761	5.831575318094	1051
20	5797	5.865591318512	1051
20	5813	5.877663473648	1051
20	5817	5.886167473752	1051
20	5830	5.908927175528	1051
20	5911	6.005784066603	1051
20	5938	6.022792066817	1051
20	5952	6.039800067032	1051
20	5963	6.070179256313	1051
20	5978	6.080561045152	1051
20	5982	6.08906504526	1051
20	6046	6.185477661037	1051
20	6089	6.233530602381	1051
20	6094	6.242034602492	1051
20	6131	6.289531187229	1051
20	6156	6.365190553266	1051
20	6166	6.392275599326	1051
20	6199	6.419615259946	1051
20	6236	6.456461667461	1051
20	6275	6.481973667805	1051
20	6356	6.532997668496	1051
20	6362	6.541501668612	1051
20	6385	6.56701366896	1051
20	6418	6.59478244778	1051
20	6438	6.611790448014	1051
20	6448	6.620294448131	1051
20	6480	6.669049018511	1051
20	6495	6.696388735804	1051
20	6544	6.723735105947	1051
20	6615	6.774759106662	1051
20	6621	6.783263106782	1051
20	6655	6.808775107142	1051
20	6665	6.817279107262	1051
20	6670	6.825783107382	1051
20	6681	6.83763712407	1051
20	6775	6.920969677939	1051
20	6780	6.92947367806	1051
20	6796	6.953676453591	1051
20	6805	6.962180453714	1051
20	6815	6.970684453837	1051
20	6825	6.979188453959	1051
20	6843	6.996196454205	1051
20	6877	7.027740710008	1051
20	6887	7.036244710132	1051
20	6901	7.053252710379	1051
20	6917	7.073614959352	1051
20	6934	7.082118959476	1051
20	6949	7.099126959725	1051
20	7027	7.166507447785	1051
20	7031	7.175011447911	1051
20	7096	7.257793385456	1051
20	7168	7.341901233224	1051
20	7178	7.350405233352	1051
20	7201	7.36741323361	1051
20	7234	7.395604279043	1051
20	7245	7.404108279173	1051
20	7349	7.527823990472	1051
20	7410	7.57142952911	1051
20	7442	7.599701867221	1051
20	7471	7.626005350012	1051
20	7541	7.686161204942	1051
20	7571	7.704607525502	1051
20	7581	7.713111525636	1051
20	7604	7.730119525905	1051
20	7609	7.73862352604	1051
20	7632	7.76113830268	1051
20	7663	7.815798731365	1051
20	7672	7.824302731501	1051
20	7677	7.832806731637	1051
20	7693	7.84555768604	1051
20	7706	7.854061686176	1051
20	7738	7.879573686586	1051
20	7764	7.906065362354	1051
20	7782	7.937954018208	1051
21	134	0.1	320000
21	206	0.2	400000
21	386	0.3	400000
21	466	0.4	480000
21	592	0.5	480000
21	706	0.6	560000
21	807	0.7	480000
21	877	0.8	240000
21	954	0.9	240000
21	979	1	80000
21	1102	1.1	560000
21	1183	1.2	320000
21	1296	1.3	400000
21	1370	1.4	320000
21	1462	1.5	480000
21	1554	1.6	320000
21	1651	1.7	480000
21	1796	1.8	480000
21	1836	1.9	80000
21	1955	2	480000
21	2060	2.1	400000
21	2167	2.2	320000
21	2228	2.3	240000
21	2325	2.4	320000
21	2391	2.5	320000
21	2502	2.6	560000
21	2641	2.7	720000
21	2751	2.8	560000
21	2904	2.9	640000
21	2999	3	400000
21	3105	3.1	400000
21	3156	3.2	160000
21	3279	3.3	560000
21	3434	3.4	560000
21	3574	3.5	480000
21	3726	3.6	640000
21	3836	3.7	480000
21	3924	3.8	320000
21	4036	3.9	640000
21	4105	4	320000
21	4183	4.1	320000
21	4322	4.2	640000
21	4404	4.3	320000
21	4454	4.4	240000
21	4563	4.5	320000
21	4622	4.6	240000
21	4738	4.7	720000
21	4861	4.8	560000
21	4931	4.9	320000
21	5037	5	400000
21	5161	5.1	320000
21	5249	5.2	160000
21	5295	5.3	240000
21	5388	5.4	400000
21	5472	5.5	320000
21	5559	5.6	160000
21	5607	5.7	160000
21	5734	5.8	560000
21	5843	5.9	400000
21	5924	6	400000
21	5998	6.1	160000
21	6075	6.2	320000
21	6146	6.3	320000
21	6186	6.4	80000
21	6316	6.5	560000
21	6428	6.6	480000
21	6504	6.7	240000
21	6645	6.8	640000
21	6757	6.9	400000
21	6864	7	240000
21	6964	7.1	240000
21	7047	7.2	400000
21	7124	7.3	400000
21	7253	7.4	480000
21	7334	7.5	480000
21	7462	7.6	560000
21	7594	7.7	560000
21	7648	7.8	160000
21	7771	7.9	320000
21	16374	8	80000
21	16374	8.1	0
21	16374	8.2	0
21	16374	8.3	0
21	16374	8.4	0
21	16374	8.5	0
21	16374	8.6	0
21	16374	8.7	0
21	16374	8.8	0
21	16374	8.9	0
21	16374	9	0
21	16374	9.1	0
21	16374	9.2	0
21	16374	9.3	0
21	16374	9.4	0
21	16374	9.5	0
21	16374	9.6	0
21	16374	9.7	0
21	16374	9.8	0
21	16374	9.9	0
21	16374	10	0
21	16374	10.1	0
21	16374	10.2	0
21	16374	10.3	0
21	16374	10.4	0
21	16374	10.5	0
21	16374	10.6	0
21	16374	10.7	0
21	16374	10.8	0
21	16374	10.9	0
21	16374	11	0
21	16374	11.1	0
21	16374	11.2	0
21	16374	11.3	0
21	16374	11.4	0
21	16374	11.5	0
21	16374	11.6	0
21	16374	11.7	0
21	16374	11.8	0
21	16374	11.9	0
21	16374	12	0
21	16374	12.1	0
21	16374	12.2	0
21	16374	12.3	0
21	16374	12.4	0
21	16374	12.5	0
21	16374	12.6	0
21	16374	12.7	0
21	16374	12.8	0
21	16374	12.9	0
21	16374	13	0
21	16374	13.1	0
21	16374	13.2	0
21	16374	13.3	0
21	16374	13.4	0
21	16374	13.5	0
21	16374	13.6	0
21	16374	13.7	0
21	16374	13.8	0
21	16374	13.9	0
21	16374	14	0
21	16374	14.1	0
21	16374	14.2	0
21	16374	14.3	0
21	16374	14.4	0
21	16374	14.5	0
21	16374	14.6	0
21	16374	14.7	0
21	16374	14.8	0
21	16374	14.9	0
21	16374	15	0
21	16374	15.1	0
21	16374	15.2	0
21	16374	15.3	0
21	16374	15.4	0
21	16374	15.5	0
21	16374	15.6	0
21	16374	15.7	0
21	16374	15.8	0
21	16374	15.9	0
21	16374	16	0
21	16374	16.1	0
21	16374	16.2	0
21	16374	16.3	0
21	16374	16.4	0
21	16374	16.5	0
21	16374	16.6	0
21	16374	16.7	0
21	16374	16.8	0
21	16374	16.9	0
21	16374	17	0
21	16374	17.1	0
21	16374	17.2	0
21	16374	17.3	0
21	16374	17.4	0
21	16374	17.5	0
21	16374	17.6	0
21	16374	17.7	0
21	16374	17.8	0
21	16374	17.9	0
21	16374	18	0
21	16374	18.1	0
21	16374	18.2	0
21	16374	18.3	0
21	16374	18.4	0
21	16374	18.5	0
21	16374	18.6	0
21	16374	18.7	0
21	16374	18.8	0
21	16374	18.9	0
21	16374	19	0
21	16374	19.1	0
21	16374	19.2	0
21	16374	19.3	0
21	16374	19.4	0
21	16374	19.5	0
21	16374	19.6	0
21	16374	19.7	0
21	16374	19.8	0
21	16374	19.9	0
21	16374	20	0
22	16374	0.1	0
22	16374	0.2	0
22	16374	0.3	0
22	16374	0.4	0
22	16374	0.5	0
22	16374	0.6	0
22	16374	0.7	0
22	16374	0.8	0
22	16374	0.9	0
22	16374	1	0
22	16374	1.1	0
22	16374	1.2	0
22	16374	1.3	0
22	16374	1.4	0
22	16374	1.5	0
22	16374	1.6	0
22	16374	1.7	0
22	16374	1.8	0
22	16374	1.9	0
22	16374	2	0
22	16374	2.1	0
22	16374	2.2	0
22	16374	2.3	0
22	16374	2.4	0
22	16374	2.5	0
22	16374	2.6	0
22	16374	2.7	0
22	16374	2.8	0
22	16374	2.9	0
22	16374	3	0
22	16374	3.1	0
22	16374	3.2	0
22	16374	3.3	0
22	16374	3.4	0
22	16374	3.5	0
22	16374	3.6	0
22	16374	3.7	0
22	16374	3.8	0
22	16374	3.9	0
22	16374	4	0
22	16374	4.1	0
22	16374	4.2	0
22	16374	4.3	0
22	16374	4.4	0
22	16374	4.5	0
22	16374	4.6	0
22	16374	4.7	0
22	16374	4.8	0
22	16374	4.9	0
22	16374	5	0
22	16374	5.1	0
22	16374	5.2	0
22	16374	5.3	0
22	16374	5.4	0
22	16374	5.5	0
22	16374	5.6	0
22	16374	5.7	0
22	16374	5.8	0
22	16374	5.9	0
22	16374	6	0
22	16374	6.1	0
22	16374	6.2	0
22	16374	6.3	0
22	16374	6.4	0
22	16374	6.5	0
22	16374	6.6	0
22	16374	6.7	0
22	16374	6.8	0
22	16374	6.9	0
22	16374	7	0
22	16374	7.1	0
22	16374	7.2	0
22	16374	7.3	0
22	16374	7.4	0
22	16374	7.5	0
22	16374	7.6	0
22	16374	7.7	0
22	16374	7.8	0
22	16374	7.9	0
22	16374	8	0
22	16374	8.1	0
22	16374	8.2	0
22	16374	8.3	0
22	16374	8.4	0
22	16374	8.5	0
22	16374	8.6	0
22	16374	8.7	0
22	16374	8.8	0
22	16374	8.9	0
22	16374	9	0
22	16374	9.1	0
22	16374	9.2	0
22	16374	9.3	0
22	16374	9.4	0
22	16374	9.5	0
22	16374	9.6	0
22	16374	9.7	0
22	16374	9.8	0
22	16374	9.9	0
22	16374	10	0
22	16374	10.1	0
22	16374	10.2	0
22	16374	10.3	0
22	16374	10.4	0
22	16374	10.5	0
22	16374	10.6	0
22	16374	10.7	0
22	16374	10.8	0
22	16374	10.9	0
22	16374	11	0
22	16374	11.1	0
22	16374	11.2	0
22	16374	11.3	0
22	16374	11.4	0
22	16374	11.5	0
22	16374	11.6	0
22	16374	11.7	0
22	16374	11.8	0
22	16374	11.9	0
22	16374	12	0
22	16374	12.1	0
22	16374	12.2	0
22	16374	12.3	0
22	16374	12.4	0
22	16374	12.5	0
22	16374	12.6	0
22	16374	12.7	0
22	16374	12.8	0
22	16374	12.9	0
22	16374	13	0
22	16374	13.1	0
22	16374	13.2	0
22	16374	13.3	0
22	16374	13.4	0
22	16374	13.5	0
22	16374	13.6	0
22	16374	13.7	0
22	16374	13.8	0
22	16374	13.9	0
22	16374	14	0
22	16374	14.1	0
22	16374	14.2	0
22	16374	14.3	0
22	16374	14.4	0
22	16374	14.5	0
22	16374	14.6	0
22	16374	14.7	0
22	16374	14.8	0
22	16374	14.9	0
22	16374	15	0
22	16374	15.1	0
22	16374	15.2	0
22	16374	15.3	0
22	16374	15.4	0
22	16374	15.5	0
22	16374	15.6	0
22	16374	15.7	0
22	16374	15.8	0
22	16374	15.9	0
22	16374	16	0
22	16374	16.1	0
22	16374	16.2	0
22	16374	16.3	0
22	16374	16.4	0
22	16374	16.5	0
22	16374	16.6	0
22	16374	16.7	0
22	16374	16.8	0
22	16374	16.9	0
22	16374	17	0
22	16374	17.1	0
22	16374	17.2	0
22	16374	17.3	0
22	16374	17.4	0
22	16374	17.5	0
22	16374	17.6	0
22	16374	17.7	0
22	16374	17.8	0
22	16374	17.9	0
22	16374	18	0
22	16374	18.1	0
22	16374	18.2	0
22	16374	18.3	0
22	16374	18.4	0
22	16374	18.5	0
22	16374	18.6	0
22	16374	18.7	0
22	16374	18.8	0
22	16374	18.9	0
22	16374	19	0
22	16374	19.1	0
22	16374	19.2	0
22	16374	19.3	0
22	16374	19.4	0
22	16374	19.5	0
22	16374	19.6	0
22	16374	19.7	0
22	16374	19.8	0
22	16374	19.9	0
22	16374	20	0

