file 930698 1620160408                                          
version 2
run Wireless01-0-20210504-22:32:46-6764
attr configname Wireless01
attr datetime 20210504-22:32:46
attr experiment Wireless01
attr inifile omnetpp.ini
attr iterationvars ""
attr iterationvarsf ""
attr measurement ""
attr network simple_wireless
attr processid 6764
attr repetition 0
attr replication #0
attr resultdir results
attr runnumber 0
attr seedset 0
param *.host*.ipv4.arp.typename "\"GlobalArp\""
param *.hostT.numApps 1
param *.hostT.app[0].typename "\"UdpBasicApp\""
param *.hostT.app[0].destAddresses "\"hostR\""
param *.hostT.app[0].destPort 5000
param *.hostT.app[0].messageLength 1000B
param *.hostT.app[0].sendInterval exponential(12ms)
param *.hostT.app[0].packetName "\"UDPData\""
param *.hostR.numApps 1
param *.hostR.app[0].typename "\"UdpSink\""
param *.hostR.app[0].localPort 5000
param *.host*.wlan[0].typename "\"WirelessInterface\""
param *.host*.wlan[0].radio.typename "\"UnitDiskRadioCustomized\""
param *.host*.wlan[0].mac.typename "\"AckingMac\""
param *.host*.wlan[0].mac.useAck false
param *.host*.wlan[0].mac.fullDuplex false
param *.host*.wlan[0].mac.headerLength 23B
param *.host*.**.bitrate 1Mbps
param *.host*.wlan[0].radio.transmitter.communicationRange 320m
param *.hostT.wlan[0].radio.displayCommunicationRange true
param *.hostR.mobility.typename "\"LinearMobility\""
param *.hostR.mobility.speed 15mps
param *.hostR.mobility.initialMovementHeading 270deg
param *.hostT.mobility.typename "\"LinearMobility\""
param *.hostT.mobility.speed 1mps
param *.hostT.mobility.initialMovementHeading 270deg
param *.host*.wlan[0].radio.receiver.LinearMobility "\"2\""
param *.host*.wlan[0].radio.receiver.ignoreInterference true
param *.host*.wlan[0].radio.transmitter.interferenceRange 500m
param *.hostT.wlan[0].radio.displayInterferenceRange true
param *.host*.wlan[0].radio.receiver.errorModel.packetErrorRate 0.6

vector 0 simple_wireless.hostT.wlan[0].radio radioMode:vector ETV
attr interpolationmode sample-hold
attr source radioModeChanged
attr title "Radio mode, vector"
vector 1 simple_wireless.hostR.wlan[0].radio radioMode:vector ETV
attr interpolationmode sample-hold
attr source radioModeChanged
attr title "Radio mode, vector"
vector 2 simple_wireless.hostT.wlan[0].radio receptionState:vector ETV
attr interpolationmode sample-hold
attr source receptionStateChanged
attr title "Radio reception state, vector"
vector 3 simple_wireless.hostR.wlan[0].radio receptionState:vector ETV
attr interpolationmode sample-hold
attr source receptionStateChanged
attr title "Radio reception state, vector"
vector 4 simple_wireless.hostT.app[0] packetSent:vector(packetBytes) ETV
attr interpolationmode none
attr source packetSent
attr title "packets sent, vector(packetBytes)"
vector 5 simple_wireless.hostT.udp packetSent:vector(packetBytes) ETV
attr interpolationmode none
attr source packetSent
attr title "packets sent, vector(packetBytes)"
vector 6 simple_wireless.hostT.wlan[0].mac rcvdPkFromHl:vector(packetBytes) ETV
attr interpolationmode none
attr source packetReceivedFromUpper
attr title "packets received from higher layer, vector(packetBytes)"
vector 7 simple_wireless.hostT.wlan[0].mac.queue packetPushed:vector(packetBytes) ETV
attr interpolationmode none
attr title "packet pushed, vector(packetBytes)"
vector 8 simple_wireless.hostT.wlan[0].mac.queue queueLength:vector ETV
attr interpolationmode sample-hold
attr source "count(packetPushed) - count(packetPopped) - count(packetRemoved) - count(packetDropped)"
attr title "queue length, vector"
vector 9 simple_wireless.hostT.wlan[0].mac.queue packetPopped:vector(packetBytes) ETV
attr interpolationmode none
attr title "packet popped, vector(packetBytes)"
vector 10 simple_wireless.hostT.wlan[0].mac.queue queueingTime:vector ETV
attr interpolationmode none
attr source queueingTime(packetPopped)
attr title "queueing times, vector"
attr unit s
vector 11 simple_wireless.hostT.wlan[0].radio transmissionState:vector ETV
attr interpolationmode sample-hold
attr source transmissionStateChanged
attr title "Radio transmission state, vector"
vector 12 simple_wireless.hostT.wlan[0].mac sentDownPk:vector(packetBytes) ETV
attr interpolationmode none
attr source packetSentToLower
attr title "packets sent to lower layer, vector(packetBytes)"
vector 13 simple_wireless.hostR.wlan[0].mac rcvdPkFromLl:vector(packetBytes) ETV
attr interpolationmode none
attr source packetReceivedFromLower
attr title "packets received from lower layer, vector(packetBytes)"
vector 14 simple_wireless.hostR.wlan[0].mac passedUpPk:vector(packetBytes) ETV
attr interpolationmode none
attr source packetSentToUpper
attr title "packets passed to higher layer, vector(packetBytes)"
vector 15 simple_wireless.hostR.udp packetReceived:vector(packetBytes) ETV
attr interpolationmode none
attr source packetReceived
attr title "packets received, vector(packetBytes)"
vector 16 simple_wireless.hostR.udp passedUpPk:vector(count) ETV
attr interpolationmode none
attr source packetSentToUpper
attr title "packets passed up, vector(count)"
vector 17 simple_wireless.hostR.app[0] packetReceived:vector(packetBytes) ETV
attr interpolationmode none
attr source packetReceived
attr title "packets received, vector(packetBytes)"
vector 18 simple_wireless.hostR.app[0] endToEndDelay:vector ETV
attr interpolationmode none
attr source dataAge(packetReceived)
attr title "end-to-end delay, vector"
attr unit s
vector 19 simple_wireless.hostR.app[0] rcvdPkSeqNo:vector ETV
attr interpolationmode none
attr source appPkSeqNo(packetReceived)
attr title "received packet sequence number, vector"
vector 20 simple_wireless.hostR.wlan[0].mac packetDropIncorrectlyReceived:vector(packetBytes) ETV
attr interpolationmode none
attr source packetDropReasonIsIncorrectlyReceived(packetDropped)
attr title "packet drop: incorrectly received, vector(packetBytes)"
vector 21 simple_wireless.hostR.app[0] throughput:vector ETV
attr source throughput(packetReceived)
attr title "throughput, vector"
attr unit bps
vector 22 simple_wireless.hostT.app[0] throughput:vector ETV
attr source throughput(packetReceived)
attr title "throughput, vector"
attr unit bps
0	6247 81168 0 16367 0 19.995950129805 3150 0 3 7870 20462
1	87415 27 0 0 0 0 3 0 2 2 4
2	87442 81150 0 16367 0 19.995950129805 3148 0 1 1574 1574
3	168592 81032 0 16370 0 19.995951498509 3148 1 3 5369 11103
4	249624 45257 4 16363 0.022315250545 19.994489854472 1574 1000 1000 1574000 1574000000
5	294881 45257 6 16364 0.022315250545 19.994489854472 1574 1008 1008 1586592 1599284736
6	340138 45257 8 16366 0.022315250545 19.994489854472 1574 1028 1028 1618072 1663378016
7	385395 45257 8 16366 0.022315250545 19.994489854472 1574 1028 1028 1618072 1663378016
8	430652 81117 8 16367 0.022315250545 19.995950129805 3148 0 8 3958 10966
9	511769 45304 8 16367 0.022315250545 19.995950129805 1574 1028 1028 1618072 1663378016
10	557073 55796 8 16367 0.022315250545 19.995950129805 1574 0 0.067666639176 14.51816203861 0.35228324049074
11	612869 168577 8 16368 0.022315250545 19.995950129805 6294 0 2 6295 9443
12	781446 46878 8 16367 0.022315250545 19.995950129805 1574 1051 1051 1654274 1738641974
13	828324 18555 19 7782 0.030820251238 7.937954018208 646 1051 1051 678946 713572246
14	846879 11112 19 7768 0.030820251238 7.914569362491 387 1028 1028 397836 408975408
15	857991 11112 21 7770 0.030820251238 7.914569362491 387 1008 1008 390096 393216768
16	869103 10617 21 7770 0.030820251238 7.914569362491 387 1 387 75078 19395150
17	879720 11112 22 7771 0.030820251238 7.914569362491 387 1000 1000 387000 387000000
18	890832 14931 22 7771 0.030820251238 7.914569362491 387 0.008505000693 0.076066948082 7.087749977721 0.19359443172499
19	905763 10661 22 7771 0.030820251238 7.914569362491 387 0 644 123143 52181469
20	916424 7443 57 7782 0.076573037754 7.937954018208 259 1051 1051 272209 286091659
21	923867 3568 134 16374 0.1 20 200 0 720000 30960000 13920000000000
22	927435 3261 16374 16374 0.1 20 200 0 0 0 0

